          97
Time step:               20000 Sim. Time [au]      200000.00
C     0.89065886E+02    0.95639914E+02    0.10604170E+03
H     0.88586994E+02    0.94704718E+02    0.10582275E+03
H     0.89605018E+02    0.96118328E+02    0.10521482E+03
H     0.89761772E+02    0.95690219E+02    0.10690212E+03
H     0.88220191E+02    0.96283726E+02    0.10643640E+03
C     0.94395766E+02    0.94802246E+02    0.10481458E+03
O     0.95298589E+02    0.94294188E+02    0.10423830E+03
O     0.99402072E+02    0.92844817E+02    0.10684362E+03
H     0.99858238E+02    0.92433864E+02    0.10762614E+03
H     0.10001280E+03    0.93360576E+02    0.10616733E+03
O     0.99382753E+02    0.98922587E+02    0.10382538E+03
H     0.99348357E+02    0.99911346E+02    0.10389833E+03
H     0.99995410E+02    0.98613304E+02    0.10305128E+03
O     0.10139766E+03    0.96194957E+02    0.10313465E+03
H     0.10174861E+03    0.96463867E+02    0.10402757E+03
H     0.10136528E+03    0.96973612E+02    0.10245494E+03
O     0.95150280E+02    0.95814351E+02    0.98062110E+02
H     0.95840053E+02    0.95081292E+02    0.97849557E+02
H     0.95674221E+02    0.96680769E+02    0.98306773E+02
O     0.95528889E+02    0.97179122E+02    0.10207238E+03
H     0.94723720E+02    0.97497258E+02    0.10262160E+03
H     0.96219344E+02    0.96603081E+02    0.10257571E+03
O     0.98127935E+02    0.90673938E+02    0.10171874E+03
H     0.97443172E+02    0.91227959E+02    0.10122982E+03
H     0.98208265E+02    0.89688070E+02    0.10145442E+03
O     0.98311098E+02    0.94417351E+02    0.10214037E+03
H     0.98482958E+02    0.93661874E+02    0.10280068E+03
H     0.98070581E+02    0.95289440E+02    0.10268026E+03
O     0.10100699E+03    0.93737487E+02    0.10449775E+03
H     0.10016314E+03    0.93181824E+02    0.10420833E+03
H     0.10104256E+03    0.94519706E+02    0.10382892E+03
O     0.95220020E+02    0.91645697E+02    0.96286311E+02
H     0.95405958E+02    0.91134220E+02    0.95432777E+02
H     0.95985354E+02    0.92274369E+02    0.96582385E+02
O     0.10283056E+03    0.96709074E+02    0.10532691E+03
H     0.10341284E+03    0.97332425E+02    0.10580572E+03
H     0.10324717E+03    0.95746410E+02    0.10526398E+03
O     0.99021023E+02    0.97500080E+02    0.99701897E+02
H     0.99203815E+02    0.96471226E+02    0.99569138E+02
H     0.98016261E+02    0.97654551E+02    0.99609579E+02
O     0.92535182E+02    0.96162762E+02    0.98784365E+02
H     0.93514101E+02    0.96161656E+02    0.98457429E+02
H     0.92287562E+02    0.95203786E+02    0.98938633E+02
O     0.89099369E+02    0.94010736E+02    0.99729020E+02
H     0.89042594E+02    0.95032757E+02    0.99803692E+02
H     0.88327269E+02    0.93538745E+02    0.10017742E+03
O     0.91456488E+02    0.93576846E+02    0.98857166E+02
H     0.90566909E+02    0.93611829E+02    0.99381799E+02
H     0.91618144E+02    0.92625926E+02    0.98500832E+02
O     0.96443773E+02    0.92436633E+02    0.10057206E+03
H     0.95460095E+02    0.92663708E+02    0.10039710E+03
H     0.96879957E+02    0.93099374E+02    0.10118580E+03
O     0.98078814E+02    0.95185993E+02    0.10561765E+03
H     0.98001983E+02    0.94305543E+02    0.10609407E+03
H     0.98753510E+02    0.95821936E+02    0.10609881E+03
O     0.94043922E+02    0.93547916E+02    0.99816111E+02
H     0.94276844E+02    0.94501040E+02    0.99631801E+02
H     0.93122493E+02    0.93323055E+02    0.99376383E+02
O     0.98900779E+02    0.92329739E+02    0.10385261E+03
H     0.98274667E+02    0.92203776E+02    0.10466913E+03
H     0.98759222E+02    0.91558469E+02    0.10325022E+03
O     0.10039801E+03    0.94848260E+02    0.10068984E+03
H     0.99473865E+02    0.94707233E+02    0.10115403E+03
H     0.10109019E+03    0.95215133E+02    0.10128663E+03
O     0.97752645E+02    0.96652005E+02    0.10366335E+03
H     0.97884254E+02    0.96051921E+02    0.10449072E+03
H     0.98016563E+02    0.97595750E+02    0.10389517E+03
O     0.92762468E+02    0.98121361E+02    0.10218934E+03
H     0.92629226E+02    0.97552331E+02    0.10134733E+03
H     0.92896076E+02    0.99095663E+02    0.10203341E+03
O     0.99985412E+02    0.97085658E+02    0.10604534E+03
H     0.10098837E+03    0.97009229E+02    0.10597584E+03
H     0.99762310E+02    0.97751092E+02    0.10531975E+03
O     0.89913482E+02    0.96596782E+02    0.99213068E+02
H     0.89568970E+02    0.96119019E+02    0.98425285E+02
H     0.90950615E+02    0.96655059E+02    0.99257709E+02
O     0.10112578E+03    0.98323091E+02    0.10138401E+03
H     0.10036266E+03    0.97822821E+02    0.10089864E+03
H     0.10172369E+03    0.98729046E+02    0.10069749E+03
O     0.92937744E+02    0.98781429E+02    0.98294644E+02
H     0.92551151E+02    0.97851663E+02    0.98337850E+02
H     0.92379341E+02    0.99468456E+02    0.97757684E+02
O     0.96945768E+02    0.93639052E+02    0.97767895E+02
H     0.97958440E+02    0.93777565E+02    0.97807161E+02
H     0.96755899E+02    0.92992532E+02    0.98533958E+02
O     0.99776584E+02    0.93676248E+02    0.98154471E+02
H     0.99995388E+02    0.94103268E+02    0.99026427E+02
H     0.10053706E+03    0.93432938E+02    0.97568043E+02
O     0.92857845E+02    0.91372641E+02    0.97936929E+02
H     0.93195511E+02    0.90438185E+02    0.98181979E+02
H     0.93489670E+02    0.91831123E+02    0.97268582E+02
O     0.10366425E+03    0.94078885E+02    0.10553270E+03
H     0.10425900E+03    0.93408377E+02    0.10503938E+03
H     0.10270881E+03    0.93895717E+02    0.10533811E+03
O     0.96309002E+02    0.97922146E+02    0.99592825E+02
H     0.95507945E+02    0.98385367E+02    0.99215129E+02
H     0.96111551E+02    0.97633335E+02    0.10055326E+03
