          97
Time step:               25000 Sim. Time [au]      250000.00
C     0.91716020E+02    0.92936142E+02    0.10724011E+03
H     0.91924844E+02    0.92244918E+02    0.10628197E+03
H     0.91194939E+02    0.92514628E+02    0.10801790E+03
H     0.91315805E+02    0.93947373E+02    0.10700574E+03
H     0.92753800E+02    0.93143321E+02    0.10760519E+03
C     0.94278975E+02    0.92893930E+02    0.10327504E+03
O     0.93972252E+02    0.91979621E+02    0.10264127E+03
O     0.98919572E+02    0.90911591E+02    0.10535535E+03
H     0.99018338E+02    0.90312181E+02    0.10617624E+03
H     0.99805555E+02    0.91325219E+02    0.10507851E+03
O     0.10008749E+03    0.97229165E+02    0.10522006E+03
H     0.10004312E+03    0.97947842E+02    0.10594387E+03
H     0.10039657E+03    0.97597244E+02    0.10434230E+03
O     0.10207634E+03    0.95198909E+02    0.10240647E+03
H     0.10229982E+03    0.94685210E+02    0.10326526E+03
H     0.10159107E+03    0.96092131E+02    0.10261397E+03
O     0.95704663E+02    0.97480710E+02    0.98832437E+02
H     0.95621033E+02    0.96558552E+02    0.98504300E+02
H     0.95928378E+02    0.97491588E+02    0.99850435E+02
O     0.94401110E+02    0.96767455E+02    0.10315463E+03
H     0.93592212E+02    0.96684686E+02    0.10377746E+03
H     0.95199903E+02    0.96505821E+02    0.10374066E+03
O     0.97143072E+02    0.90896761E+02    0.10066787E+03
H     0.96942989E+02    0.91825322E+02    0.10029805E+03
H     0.96694686E+02    0.90127747E+02    0.10020708E+03
O     0.97869970E+02    0.94489343E+02    0.10198329E+03
H     0.97567142E+02    0.93714809E+02    0.10261356E+03
H     0.97650981E+02    0.95397641E+02    0.10234270E+03
O     0.10033286E+03    0.92075619E+02    0.10274105E+03
H     0.99330863E+02    0.92163518E+02    0.10252923E+03
H     0.10079668E+03    0.92670079E+02    0.10207806E+03
O     0.94635214E+02    0.94707111E+02    0.95988718E+02
H     0.94777586E+02    0.94712958E+02    0.94978710E+02
H     0.95545427E+02    0.94842652E+02    0.96469665E+02
O     0.10242813E+03    0.93599514E+02    0.10496656E+03
H     0.10317756E+03    0.93996981E+02    0.10556009E+03
H     0.10249663E+03    0.92624838E+02    0.10490992E+03
O     0.98523578E+02    0.97376458E+02    0.10128790E+03
H     0.98685397E+02    0.97206050E+02    0.10029882E+03
H     0.97621458E+02    0.97754230E+02    0.10151426E+03
O     0.93502870E+02    0.99022882E+02    0.98430267E+02
H     0.94413661E+02    0.98517817E+02    0.98393148E+02
H     0.92839148E+02    0.98396303E+02    0.98857736E+02
O     0.90883419E+02    0.97942624E+02    0.96876213E+02
H     0.91754831E+02    0.98113100E+02    0.96374485E+02
H     0.90101202E+02    0.98110121E+02    0.96282223E+02
O     0.91810587E+02    0.96305206E+02    0.98912270E+02
H     0.91214379E+02    0.96860536E+02    0.98307322E+02
H     0.92230020E+02    0.95504607E+02    0.98411194E+02
O     0.96171796E+02    0.93768827E+02    0.10002817E+03
H     0.95371715E+02    0.94173100E+02    0.10045200E+03
H     0.96964505E+02    0.94061847E+02    0.10062710E+03
O     0.97048781E+02    0.93756617E+02    0.10524044E+03
H     0.96988576E+02    0.92946040E+02    0.10461488E+03
H     0.98071731E+02    0.93899314E+02    0.10548848E+03
O     0.93921259E+02    0.95044846E+02    0.10071502E+03
H     0.93784319E+02    0.95632173E+02    0.10150298E+03
H     0.93172557E+02    0.95075035E+02    0.99988738E+02
O     0.97558012E+02    0.91944074E+02    0.10309289E+03
H     0.98097194E+02    0.91454493E+02    0.10382386E+03
H     0.97518045E+02    0.91320753E+02    0.10229036E+03
O     0.10017353E+03    0.94442764E+02    0.10069417E+03
H     0.99270660E+02    0.94441481E+02    0.10119727E+03
H     0.10096356E+03    0.94713717E+02    0.10128443E+03
O     0.97049903E+02    0.96354112E+02    0.10419850E+03
H     0.97074395E+02    0.95392991E+02    0.10455013E+03
H     0.97976001E+02    0.96703875E+02    0.10426960E+03
O     0.93354045E+02    0.95876183E+02    0.10549302E+03
H     0.94244847E+02    0.95408310E+02    0.10530896E+03
H     0.93391742E+02    0.96560668E+02    0.10624071E+03
O     0.99611929E+02    0.94567372E+02    0.10566130E+03
H     0.10054209E+03    0.94240268E+02    0.10553734E+03
H     0.99593163E+02    0.95567263E+02    0.10550275E+03
O     0.93115643E+02    0.98870161E+02    0.95829392E+02
H     0.94021259E+02    0.98458953E+02    0.95567198E+02
H     0.93148567E+02    0.99301824E+02    0.96715563E+02
O     0.10054369E+03    0.98128959E+02    0.10290685E+03
H     0.99748724E+02    0.97844735E+02    0.10235040E+03
H     0.10122668E+03    0.98625644E+02    0.10238665E+03
O     0.94803361E+02    0.10030518E+03    0.10035503E+03
H     0.94797760E+02    0.10132410E+03    0.10052946E+03
H     0.94089226E+02    0.10008656E+03    0.99684523E+02
O     0.97076701E+02    0.95011249E+02    0.97599826E+02
H     0.97757325E+02    0.95708492E+02    0.97847320E+02
H     0.96878238E+02    0.94393036E+02    0.98408150E+02
O     0.99356909E+02    0.96210938E+02    0.98947160E+02
H     0.99679790E+02    0.95477408E+02    0.99611320E+02
H     0.10002290E+03    0.96217578E+02    0.98182652E+02
O     0.92973995E+02    0.93919163E+02    0.97921559E+02
H     0.92137579E+02    0.93445261E+02    0.97594548E+02
H     0.93576122E+02    0.94165416E+02    0.97157080E+02
O     0.10166904E+03    0.90715190E+02    0.10475942E+03
H     0.10190316E+03    0.89764151E+02    0.10462809E+03
H     0.10132710E+03    0.91110213E+02    0.10385900E+03
O     0.95930758E+02    0.98204746E+02    0.10149918E+03
H     0.95422615E+02    0.98970562E+02    0.10105461E+03
H     0.95441476E+02    0.97552872E+02    0.10212444E+03
