          97
Time step:               11000 Sim. Time [au]      110000.00
C     0.10179837E+03    0.93626275E+02    0.10477104E+03
H     0.10260950E+03    0.94053285E+02    0.10408229E+03
H     0.10206320E+03    0.93278220E+02    0.10575316E+03
H     0.10130331E+03    0.92802851E+02    0.10427955E+03
H     0.10122104E+03    0.94554116E+02    0.10494787E+03
C     0.94775684E+02    0.93391693E+02    0.10530703E+03
O     0.93896837E+02    0.93774868E+02    0.10593900E+03
O     0.93095432E+02    0.10063663E+03    0.10453757E+03
H     0.92654867E+02    0.10143738E+03    0.10408116E+03
H     0.92734134E+02    0.10055055E+03    0.10546681E+03
O     0.97082951E+02    0.99566411E+02    0.10013689E+03
H     0.96497230E+02    0.99846447E+02    0.99353254E+02
H     0.97920110E+02    0.99100299E+02    0.99818730E+02
O     0.10102791E+03    0.97174847E+02    0.10166320E+03
H     0.10080295E+03    0.97781566E+02    0.10250473E+03
H     0.10103590E+03    0.97714372E+02    0.10082699E+03
O     0.96065869E+02    0.93208790E+02    0.99464808E+02
H     0.96907444E+02    0.92658748E+02    0.99456699E+02
H     0.96001623E+02    0.93940070E+02    0.98698812E+02
O     0.95656647E+02    0.96551600E+02    0.10018132E+03
H     0.95175850E+02    0.95746164E+02    0.10058296E+03
H     0.95857895E+02    0.97213920E+02    0.10094739E+03
O     0.98144630E+02    0.92339569E+02    0.10510680E+03
H     0.97735814E+02    0.92349792E+02    0.10416650E+03
H     0.98130894E+02    0.91380415E+02    0.10543693E+03
O     0.98046371E+02    0.95478480E+02    0.10331752E+03
H     0.98369205E+02    0.95427451E+02    0.10425097E+03
H     0.97702253E+02    0.96408648E+02    0.10308357E+03
O     0.98925611E+02    0.97602176E+02    0.10618602E+03
H     0.98847771E+02    0.96592118E+02    0.10621798E+03
H     0.98355319E+02    0.97914736E+02    0.10695239E+03
O     0.97216067E+02    0.89153038E+02    0.99764193E+02
H     0.97826003E+02    0.88372149E+02    0.99726295E+02
H     0.97761511E+02    0.89985857E+02    0.99981320E+02
O     0.10023015E+03    0.10149721E+03    0.10272929E+03
H     0.10120515E+03    0.10144446E+03    0.10276439E+03
H     0.99899912E+02    0.10059079E+03    0.10308910E+03
O     0.98995687E+02    0.95839571E+02    0.99055932E+02
H     0.99312625E+02    0.95548872E+02    0.99963541E+02
H     0.98110544E+02    0.95410354E+02    0.98774186E+02
O     0.93607337E+02    0.91873960E+02    0.98297975E+02
H     0.94583103E+02    0.92093138E+02    0.98565905E+02
H     0.93464206E+02    0.90860877E+02    0.98369871E+02
O     0.92017211E+02    0.92000634E+02    0.10195332E+03
H     0.91577142E+02    0.91949439E+02    0.10285413E+03
H     0.91871907E+02    0.92854489E+02    0.10143774E+03
O     0.92768031E+02    0.89138826E+02    0.98413374E+02
H     0.92583095E+02    0.88427306E+02    0.97733333E+02
H     0.93195581E+02    0.88735263E+02    0.99262759E+02
O     0.97265774E+02    0.92772825E+02    0.10272067E+03
H     0.96261339E+02    0.92582974E+02    0.10250488E+03
H     0.97412802E+02    0.93772568E+02    0.10272469E+03
O     0.96003319E+02    0.10003553E+03    0.10424544E+03
H     0.95011619E+02    0.99931001E+02    0.10406991E+03
H     0.96407507E+02    0.10069963E+03    0.10352627E+03
O     0.94643591E+02    0.91748882E+02    0.10172905E+03
H     0.94873071E+02    0.91772845E+02    0.10073877E+03
H     0.93629013E+02    0.91879226E+02    0.10195034E+03
O     0.98675096E+02    0.94813011E+02    0.10604506E+03
H     0.98936507E+02    0.94525196E+02    0.10702086E+03
H     0.98377726E+02    0.93987070E+02    0.10554638E+03
O     0.99835440E+02    0.94878919E+02    0.10133578E+03
H     0.99255750E+02    0.94599531E+02    0.10208884E+03
H     0.10032756E+03    0.95737509E+02    0.10164537E+03
O     0.97162240E+02    0.98075690E+02    0.10254566E+03
H     0.96749894E+02    0.98670004E+02    0.10328190E+03
H     0.97173165E+02    0.98572996E+02    0.10164557E+03
O     0.94219518E+02    0.94685206E+02    0.10144082E+03
H     0.94968847E+02    0.93995489E+02    0.10135401E+03
H     0.93352021E+02    0.94417646E+02    0.10096962E+03
O     0.97511753E+02    0.10137934E+03    0.10225123E+03
H     0.98407332E+02    0.10168746E+03    0.10250122E+03
H     0.97441305E+02    0.10088005E+03    0.10132922E+03
O     0.91654159E+02    0.94221710E+02    0.10009040E+03
H     0.91283608E+02    0.95137516E+02    0.10035154E+03
H     0.91608023E+02    0.94038494E+02    0.99082401E+02
O     0.99893086E+02    0.98504361E+02    0.99009239E+02
H     0.99668522E+02    0.97510192E+02    0.99045707E+02
H     0.10045385E+03    0.98579344E+02    0.98188090E+02
O     0.91711336E+02    0.93748067E+02    0.97544054E+02
H     0.91210834E+02    0.93313152E+02    0.96768841E+02
H     0.92580958E+02    0.93229100E+02    0.97777156E+02
O     0.98396107E+02    0.91778415E+02    0.10042437E+03
H     0.99321542E+02    0.91988711E+02    0.10010167E+03
H     0.98189472E+02    0.91971572E+02    0.10141695E+03
O     0.10087061E+03    0.92912619E+02    0.99795876E+02
H     0.10053743E+03    0.93777406E+02    0.10028021E+03
H     0.10112584E+03    0.93205443E+02    0.98877149E+02
O     0.94483118E+02    0.88563554E+02    0.10055179E+03
H     0.94224111E+02    0.89303993E+02    0.10117363E+03
H     0.95377029E+02    0.88813224E+02    0.10017779E+03
O     0.99501039E+02    0.98883183E+02    0.10378159E+03
H     0.98878996E+02    0.98391128E+02    0.10314121E+03
H     0.99339951E+02    0.98567631E+02    0.10473452E+03
O     0.96360518E+02    0.95402089E+02    0.97920273E+02
H     0.96355663E+02    0.96041018E+02    0.97134713E+02
H     0.96067656E+02    0.95869489E+02    0.98827768E+02
