          97
Time step:                9500 Sim. Time [au]       95000.00
C     0.10208351E+03    0.93419977E+02    0.10424525E+03
H     0.10264455E+03    0.94380122E+02    0.10454895E+03
H     0.10236360E+03    0.92822349E+02    0.10515321E+03
H     0.10241627E+03    0.93008072E+02    0.10331267E+03
H     0.10106380E+03    0.93632473E+02    0.10403303E+03
C     0.94903349E+02    0.94706483E+02    0.10475784E+03
O     0.94075920E+02    0.93993173E+02    0.10432616E+03
O     0.92522112E+02    0.10072465E+03    0.10385962E+03
H     0.92056298E+02    0.10122341E+03    0.10460952E+03
H     0.91879756E+02    0.10090224E+03    0.10307228E+03
O     0.97954586E+02    0.98386484E+02    0.99841043E+02
H     0.97422541E+02    0.97729066E+02    0.99321025E+02
H     0.98889766E+02    0.98488830E+02    0.99442887E+02
O     0.10097028E+03    0.98084337E+02    0.10133949E+03
H     0.10051639E+03    0.98653121E+02    0.10200174E+03
H     0.10095043E+03    0.98607123E+02    0.10042966E+03
O     0.96531175E+02    0.92276664E+02    0.98989981E+02
H     0.97322143E+02    0.92061702E+02    0.99605949E+02
H     0.96492512E+02    0.93189910E+02    0.98619037E+02
O     0.96008524E+02    0.95891509E+02    0.10044454E+03
H     0.95014160E+02    0.95746387E+02    0.10075640E+03
H     0.96397377E+02    0.96626910E+02    0.10105485E+03
O     0.98421222E+02    0.92797762E+02    0.10554841E+03
H     0.98013904E+02    0.92889612E+02    0.10460917E+03
H     0.98201757E+02    0.91888353E+02    0.10598401E+03
O     0.98217949E+02    0.95543834E+02    0.10327298E+03
H     0.98691644E+02    0.95579087E+02    0.10419434E+03
H     0.98048234E+02    0.96435314E+02    0.10289811E+03
O     0.98533396E+02    0.97787677E+02    0.10644255E+03
H     0.98713819E+02    0.96774838E+02    0.10626805E+03
H     0.97980104E+02    0.98079205E+02    0.10726279E+03
O     0.97292357E+02    0.89311640E+02    0.10004932E+03
H     0.96768838E+02    0.89365075E+02    0.99166182E+02
H     0.97832206E+02    0.90132467E+02    0.10025151E+03
O     0.98453055E+02    0.10163057E+03    0.10270541E+03
H     0.98812801E+02    0.10250715E+03    0.10310669E+03
H     0.98828313E+02    0.10083132E+03    0.10316336E+03
O     0.99061352E+02    0.96196608E+02    0.97990778E+02
H     0.99532084E+02    0.95485855E+02    0.98538229E+02
H     0.98205099E+02    0.95834580E+02    0.97595636E+02
O     0.93856051E+02    0.91531033E+02    0.98928017E+02
H     0.94856682E+02    0.91725738E+02    0.98695650E+02
H     0.93870541E+02    0.90593131E+02    0.99421503E+02
O     0.92568645E+02    0.91782705E+02    0.10180034E+03
H     0.92735740E+02    0.91144351E+02    0.10260955E+03
H     0.91651293E+02    0.92276239E+02    0.10194274E+03
O     0.93939626E+02    0.89072361E+02    0.99853249E+02
H     0.93946442E+02    0.88204622E+02    0.99319342E+02
H     0.94456280E+02    0.88985678E+02    0.10071152E+03
O     0.97327242E+02    0.93091848E+02    0.10310844E+03
H     0.96560688E+02    0.93048348E+02    0.10248503E+03
H     0.97628056E+02    0.94081794E+02    0.10322746E+03
O     0.94859032E+02    0.99350507E+02    0.10250756E+03
H     0.94211052E+02    0.99860329E+02    0.10318074E+03
H     0.95431599E+02    0.10004459E+03    0.10205494E+03
O     0.94920799E+02    0.92710734E+02    0.10151753E+03
H     0.95435211E+02    0.92507786E+02    0.10066447E+03
H     0.94020644E+02    0.92229861E+02    0.10158295E+03
O     0.99459107E+02    0.95289518E+02    0.10586261E+03
H     0.10040005E+03    0.95248934E+02    0.10613768E+03
H     0.99044558E+02    0.94329337E+02    0.10583249E+03
O     0.10012831E+03    0.95550819E+02    0.10086478E+03
H     0.99310111E+02    0.95432498E+02    0.10145244E+03
H     0.10069712E+03    0.96348661E+02    0.10111277E+03
O     0.97149963E+02    0.98001923E+02    0.10226542E+03
H     0.96268317E+02    0.98493992E+02    0.10246816E+03
H     0.97438735E+02    0.98157915E+02    0.10130017E+03
O     0.93216748E+02    0.94836315E+02    0.10145275E+03
H     0.93680918E+02    0.93917265E+02    0.10146158E+03
H     0.92228238E+02    0.94704691E+02    0.10162921E+03
O     0.96584386E+02    0.10070661E+03    0.10093823E+03
H     0.97110333E+02    0.10130205E+03    0.10160244E+03
H     0.97162208E+02    0.10011943E+03    0.10041467E+03
O     0.90617638E+02    0.93732676E+02    0.10176287E+03
H     0.89671978E+02    0.94083181E+02    0.10184165E+03
H     0.90928179E+02    0.93572403E+02    0.10078361E+03
O     0.10049882E+03    0.98507118E+02    0.98670725E+02
H     0.10029510E+03    0.97641424E+02    0.98184926E+02
H     0.10125385E+03    0.99033418E+02    0.98248543E+02
O     0.91450167E+02    0.93075699E+02    0.99295771E+02
H     0.91041436E+02    0.92828696E+02    0.98425502E+02
H     0.92340525E+02    0.92627714E+02    0.99397844E+02
O     0.98430652E+02    0.91642015E+02    0.10102459E+03
H     0.99387492E+02    0.91919899E+02    0.10076078E+03
H     0.98049875E+02    0.91967279E+02    0.10191962E+03
O     0.10072490E+03    0.92940183E+02    0.10049934E+03
H     0.10037828E+03    0.93892420E+02    0.10054260E+03
H     0.10174855E+03    0.92911136E+02    0.10051684E+03
O     0.95372019E+02    0.88680335E+02    0.10219609E+03
H     0.95448902E+02    0.88619395E+02    0.10319923E+03
H     0.96221958E+02    0.88828470E+02    0.10168898E+03
O     0.99176401E+02    0.99094805E+02    0.10385511E+03
H     0.98510788E+02    0.98742405E+02    0.10315523E+03
H     0.98976339E+02    0.98632130E+02    0.10474296E+03
O     0.96423737E+02    0.94901657E+02    0.97807200E+02
H     0.95580733E+02    0.95117710E+02    0.97208534E+02
H     0.96156641E+02    0.95116230E+02    0.98802328E+02
