          97
Time step:               24500 Sim. Time [au]      245000.00
C     0.90657377E+02    0.93686000E+02    0.10681702E+03
H     0.91309986E+02    0.92871615E+02    0.10729305E+03
H     0.89673898E+02    0.93504839E+02    0.10715049E+03
H     0.90826207E+02    0.93760162E+02    0.10566985E+03
H     0.91081492E+02    0.94624776E+02    0.10717529E+03
C     0.94178781E+02    0.92583897E+02    0.10371020E+03
O     0.94853769E+02    0.91953743E+02    0.10303159E+03
O     0.99033141E+02    0.90952017E+02    0.10584413E+03
H     0.98999758E+02    0.91426984E+02    0.10672265E+03
H     0.99949694E+02    0.90618295E+02    0.10550141E+03
O     0.99861464E+02    0.97388418E+02    0.10487912E+03
H     0.10013181E+03    0.98081685E+02    0.10556361E+03
H     0.10015731E+03    0.97710353E+02    0.10393303E+03
O     0.10213293E+03    0.95381652E+02    0.10272076E+03
H     0.10230751E+03    0.94944190E+02    0.10358923E+03
H     0.10221622E+03    0.96376106E+02    0.10289813E+03
O     0.95404825E+02    0.97129209E+02    0.98100360E+02
H     0.95965618E+02    0.96370728E+02    0.97763356E+02
H     0.95579111E+02    0.97269026E+02    0.99118002E+02
O     0.94458252E+02    0.96142216E+02    0.10292950E+03
H     0.93734197E+02    0.96513413E+02    0.10356521E+03
H     0.95330051E+02    0.96112819E+02    0.10342252E+03
O     0.97248761E+02    0.91275226E+02    0.10073797E+03
H     0.96829069E+02    0.92020320E+02    0.10020659E+03
H     0.98012354E+02    0.90887489E+02    0.10019334E+03
O     0.97770339E+02    0.94195957E+02    0.10195914E+03
H     0.97773156E+02    0.93280183E+02    0.10236751E+03
H     0.97675767E+02    0.94966712E+02    0.10261469E+03
O     0.10044798E+03    0.91940719E+02    0.10235725E+03
H     0.99500264E+02    0.91676530E+02    0.10255674E+03
H     0.10042487E+03    0.92762234E+02    0.10176724E+03
O     0.94810962E+02    0.94403625E+02    0.96306343E+02
H     0.94549040E+02    0.95243965E+02    0.95842524E+02
H     0.95753724E+02    0.94488960E+02    0.96565547E+02
O     0.10247523E+03    0.93878630E+02    0.10512359E+03
H     0.10340885E+03    0.94074028E+02    0.10557337E+03
H     0.10227048E+03    0.92894360E+02    0.10510138E+03
O     0.98441809E+02    0.97705821E+02    0.10095780E+03
H     0.98622446E+02    0.97155682E+02    0.10011637E+03
H     0.97414958E+02    0.97767262E+02    0.10116337E+03
O     0.93447426E+02    0.98830219E+02    0.98392963E+02
H     0.94187808E+02    0.98115711E+02    0.98234002E+02
H     0.92747417E+02    0.98453513E+02    0.99000041E+02
O     0.90787476E+02    0.97890219E+02    0.97101716E+02
H     0.91226947E+02    0.97783486E+02    0.96189856E+02
H     0.90130150E+02    0.98699618E+02    0.97092940E+02
O     0.91642019E+02    0.96115333E+02    0.99132294E+02
H     0.91285350E+02    0.96668173E+02    0.98359844E+02
H     0.91921711E+02    0.95190365E+02    0.98779107E+02
O     0.96003084E+02    0.93776311E+02    0.10003256E+03
H     0.95035603E+02    0.94044712E+02    0.10030821E+03
H     0.96671298E+02    0.93974359E+02    0.10073448E+03
O     0.97519189E+02    0.93914029E+02    0.10547213E+03
H     0.97620942E+02    0.93251423E+02    0.10475609E+03
H     0.98442120E+02    0.94049164E+02    0.10593983E+03
O     0.93692209E+02    0.94830948E+02    0.10079997E+03
H     0.93956952E+02    0.95429369E+02    0.10158428E+03
H     0.92792727E+02    0.95157005E+02    0.10040756E+03
O     0.97801721E+02    0.91891603E+02    0.10346133E+03
H     0.98031063E+02    0.91347981E+02    0.10428507E+03
H     0.97308776E+02    0.91338827E+02    0.10275945E+03
O     0.10024862E+03    0.94459474E+02    0.10102227E+03
H     0.99282254E+02    0.94367614E+02    0.10141666E+03
H     0.10094047E+03    0.94763357E+02    0.10169471E+03
O     0.96990827E+02    0.96249880E+02    0.10410978E+03
H     0.97030343E+02    0.95346143E+02    0.10458232E+03
H     0.97773519E+02    0.96887850E+02    0.10438960E+03
O     0.93673762E+02    0.95901656E+02    0.10558959E+03
H     0.93889564E+02    0.94947911E+02    0.10528893E+03
H     0.93975141E+02    0.96085762E+02    0.10651989E+03
O     0.10009752E+03    0.94558597E+02    0.10597329E+03
H     0.10112973E+03    0.94434687E+02    0.10580272E+03
H     0.99811120E+02    0.95505745E+02    0.10564341E+03
O     0.92941628E+02    0.98503912E+02    0.95298573E+02
H     0.93630890E+02    0.99120247E+02    0.94789757E+02
H     0.93063946E+02    0.98605446E+02    0.96297663E+02
O     0.10075475E+03    0.98362128E+02    0.10252985E+03
H     0.10010457E+03    0.97980432E+02    0.10181556E+03
H     0.10089782E+03    0.99353386E+02    0.10230305E+03
O     0.94494349E+02    0.10058684E+03    0.10049400E+03
H     0.94135227E+02    0.10153726E+03    0.10066863E+03
H     0.94209658E+02    0.10032372E+03    0.99568806E+02
O     0.97110474E+02    0.94922790E+02    0.97817827E+02
H     0.98033197E+02    0.95023599E+02    0.98190811E+02
H     0.96493240E+02    0.94549103E+02    0.98551753E+02
O     0.99404193E+02    0.96037680E+02    0.98898968E+02
H     0.99843784E+02    0.95435240E+02    0.99605155E+02
H     0.10001325E+03    0.96534971E+02    0.98285559E+02
O     0.92580231E+02    0.93849125E+02    0.97726405E+02
H     0.92905633E+02    0.93075042E+02    0.98305829E+02
H     0.93327182E+02    0.94160117E+02    0.97094267E+02
O     0.10201919E+03    0.91237782E+02    0.10463576E+03
H     0.10279224E+03    0.90687029E+02    0.10438949E+03
H     0.10139885E+03    0.91462676E+02    0.10382667E+03
O     0.95610550E+02    0.98101798E+02    0.10102229E+03
H     0.95137801E+02    0.98986483E+02    0.10104637E+03
H     0.95086768E+02    0.97477725E+02    0.10165068E+03
