          97
Time step:                3000 Sim. Time [au]       30000.00
C     0.10168586E+03    0.94108121E+02    0.10429986E+03
H     0.10068026E+03    0.94457673E+02    0.10399801E+03
H     0.10154720E+03    0.93038979E+02    0.10441941E+03
H     0.10204174E+03    0.94711802E+02    0.10514640E+03
H     0.10241148E+03    0.94350790E+02    0.10345446E+03
C     0.94296962E+02    0.97220356E+02    0.10514331E+03
O     0.94165361E+02    0.97506989E+02    0.10403603E+03
O     0.92155694E+02    0.98023357E+02    0.10149205E+03
H     0.91978680E+02    0.97071627E+02    0.10178982E+03
H     0.92235510E+02    0.98518925E+02    0.10237623E+03
O     0.97833300E+02    0.97357406E+02    0.98403340E+02
H     0.98264444E+02    0.96951270E+02    0.99222155E+02
H     0.97929270E+02    0.96806973E+02    0.97546758E+02
O     0.98952422E+02    0.98883638E+02    0.10069476E+03
H     0.98330009E+02    0.99403000E+02    0.10128418E+03
H     0.98577433E+02    0.98833886E+02    0.99749636E+02
O     0.97108382E+02    0.90859697E+02    0.99987852E+02
H     0.97842544E+02    0.91451127E+02    0.10039871E+03
H     0.96662694E+02    0.91403931E+02    0.99211392E+02
O     0.95138131E+02    0.94611299E+02    0.99488812E+02
H     0.94747886E+02    0.94099245E+02    0.10028766E+03
H     0.94984761E+02    0.95590708E+02    0.99680190E+02
O     0.98075805E+02    0.95846232E+02    0.10578679E+03
H     0.97809140E+02    0.95022521E+02    0.10526552E+03
H     0.97359711E+02    0.96178439E+02    0.10639876E+03
O     0.96871973E+02    0.96024670E+02    0.10215249E+03
H     0.97202846E+02    0.96804501E+02    0.10278153E+03
H     0.96149036E+02    0.96286474E+02    0.10148274E+03
O     0.96895464E+02    0.99453130E+02    0.10479511E+03
H     0.97549642E+02    0.98695467E+02    0.10454271E+03
H     0.97502081E+02    0.10021676E+03    0.10507419E+03
O     0.10041469E+03    0.90281733E+02    0.10234500E+03
H     0.10138327E+03    0.90313655E+02    0.10206868E+03
H     0.99839459E+02    0.91063154E+02    0.10208214E+03
O     0.96490743E+02    0.10227842E+03    0.10044736E+03
H     0.97024186E+02    0.10315318E+03    0.10057907E+03
H     0.96626058E+02    0.10154759E+03    0.10110618E+03
O     0.99056037E+02    0.93777351E+02    0.98012180E+02
H     0.99729296E+02    0.93716924E+02    0.98729520E+02
H     0.98143406E+02    0.93281436E+02    0.98140432E+02
O     0.95758025E+02    0.89117436E+02    0.10158147E+03
H     0.96366795E+02    0.89551969E+02    0.10089638E+03
H     0.96194871E+02    0.88428338E+02    0.10218946E+03
O     0.93450244E+02    0.93870587E+02    0.10443044E+03
H     0.93437654E+02    0.94424963E+02    0.10530002E+03
H     0.93337444E+02    0.92890578E+02    0.10465361E+03
O     0.97344216E+02    0.87829510E+02    0.10334189E+03
H     0.96965665E+02    0.87185543E+02    0.10401491E+03
H     0.98125866E+02    0.88349280E+02    0.10370035E+03
O     0.97211947E+02    0.93843798E+02    0.10405280E+03
H     0.96900099E+02    0.92881607E+02    0.10395090E+03
H     0.96712144E+02    0.94361615E+02    0.10333144E+03
O     0.94305392E+02    0.99534004E+02    0.10071281E+03
H     0.93420033E+02    0.99043085E+02    0.10083617E+03
H     0.94198103E+02    0.10019566E+03    0.99939575E+02
O     0.96265175E+02    0.91280794E+02    0.10366507E+03
H     0.96405338E+02    0.90666058E+02    0.10285759E+03
H     0.95435079E+02    0.91099306E+02    0.10421581E+03
O     0.98533380E+02    0.97699004E+02    0.10373417E+03
H     0.99261027E+02    0.97722931E+02    0.10305824E+03
H     0.98793138E+02    0.97096761E+02    0.10454617E+03
O     0.99302340E+02    0.96168464E+02    0.10051363E+03
H     0.98467555E+02    0.96030249E+02    0.10104693E+03
H     0.99540048E+02    0.97196128E+02    0.10055741E+03
O     0.95650065E+02    0.97303599E+02    0.10006628E+03
H     0.95134513E+02    0.98160653E+02    0.10015309E+03
H     0.96182425E+02    0.97327641E+02    0.99200789E+02
O     0.94127511E+02    0.93538223E+02    0.10171249E+03
H     0.93759900E+02    0.93938630E+02    0.10257054E+03
H     0.94214293E+02    0.92540829E+02    0.10187471E+03
O     0.94192155E+02    0.10181962E+03    0.98961395E+02
H     0.95069127E+02    0.10224428E+03    0.99234860E+02
H     0.93611491E+02    0.10245993E+03    0.98383109E+02
O     0.93292200E+02    0.91097770E+02    0.10476812E+03
H     0.92710948E+02    0.90556194E+02    0.10540646E+03
H     0.93169970E+02    0.90817443E+02    0.10378079E+03
O     0.98027305E+02    0.95537619E+02    0.96305323E+02
H     0.98525427E+02    0.94881885E+02    0.96919832E+02
H     0.98486778E+02    0.95593569E+02    0.95388157E+02
O     0.93691678E+02    0.90813333E+02    0.10208589E+03
H     0.93140875E+02    0.90860945E+02    0.10122071E+03
H     0.94501176E+02    0.90172642E+02    0.10194325E+03
O     0.98793868E+02    0.92533475E+02    0.10140479E+03
H     0.99612539E+02    0.92967257E+02    0.10093577E+03
H     0.98114734E+02    0.93147114E+02    0.10180659E+03
O     0.10088753E+03    0.93973247E+02    0.10016936E+03
H     0.10025385E+03    0.94764508E+02    0.10004796E+03
H     0.10188789E+03    0.94176192E+02    0.10013987E+03
O     0.98949251E+02    0.89561506E+02    0.10437983E+03
H     0.98463624E+02    0.90418599E+02    0.10469931E+03
H     0.99586713E+02    0.89882381E+02    0.10361318E+03
O     0.96728626E+02    0.99996946E+02    0.10209003E+03
H     0.95905311E+02    0.99770409E+02    0.10157063E+03
H     0.96610936E+02    0.99723292E+02    0.10307656E+03
O     0.96473899E+02    0.92879715E+02    0.98211063E+02
H     0.96543764E+02    0.93209535E+02    0.97239194E+02
H     0.95916042E+02    0.93544274E+02    0.98775410E+02
