          97
Time step:               41500 Sim. Time [au]      415000.00
C     0.85063930E+02    0.85051158E+02    0.10016139E+03
H     0.84787153E+02    0.85564907E+02    0.99222906E+02
H     0.84287854E+02    0.84398373E+02    0.10054545E+03
H     0.85114299E+02    0.85849249E+02    0.10090000E+03
H     0.86156720E+02    0.84568653E+02    0.10010927E+03
C     0.84897128E+02    0.83217754E+02    0.99470514E+02
O     0.85607213E+02    0.82310082E+02    0.99524759E+02
O     0.96840867E+02    0.91136875E+02    0.10230429E+03
H     0.96588041E+02    0.90907418E+02    0.10136919E+03
H     0.97888489E+02    0.91239218E+02    0.10242066E+03
O     0.98835421E+02    0.92003404E+02    0.10597582E+03
H     0.99567326E+02    0.91782569E+02    0.10662051E+03
H     0.99132388E+02    0.92885896E+02    0.10547984E+03
O     0.99926708E+02    0.92386186E+02    0.10110616E+03
H     0.99593615E+02    0.92092622E+02    0.10018472E+03
H     0.10000263E+03    0.91583166E+02    0.10176805E+03
O     0.97882938E+02    0.99319923E+02    0.10143775E+03
H     0.98679518E+02    0.98894303E+02    0.10095158E+03
H     0.96979758E+02    0.99122424E+02    0.10102287E+03
O     0.94889493E+02    0.97636275E+02    0.10298309E+03
H     0.94828829E+02    0.98386590E+02    0.10361707E+03
H     0.94334619E+02    0.96830278E+02    0.10335873E+03
O     0.97992796E+02    0.94528863E+02    0.98010534E+02
H     0.97549427E+02    0.95438803E+02    0.98175524E+02
H     0.98963997E+02    0.94626026E+02    0.98276417E+02
O     0.96592733E+02    0.95798544E+02    0.10168850E+03
H     0.96050513E+02    0.94918909E+02    0.10182567E+03
H     0.96206974E+02    0.96503896E+02    0.10235813E+03
O     0.95832796E+02    0.93052198E+02    0.99031340E+02
H     0.96311517E+02    0.93674566E+02    0.98369464E+02
H     0.95580442E+02    0.93557106E+02    0.99864547E+02
O     0.99841458E+02    0.10044782E+03    0.98814627E+02
H     0.10075259E+03    0.10057002E+03    0.98363886E+02
H     0.99679470E+02    0.99465582E+02    0.98998508E+02
O     0.98678549E+02    0.91742521E+02    0.98764279E+02
H     0.98451875E+02    0.92604958E+02    0.98268535E+02
H     0.97822105E+02    0.91152191E+02    0.98787362E+02
O     0.99810596E+02    0.94309656E+02    0.10477159E+03
H     0.99479313E+02    0.94419126E+02    0.10381933E+03
H     0.99482634E+02    0.95080542E+02    0.10539197E+03
O     0.96087865E+02    0.10128762E+03    0.10247696E+03
H     0.96902618E+02    0.10074206E+03    0.10231008E+03
H     0.95648855E+02    0.10136041E+03    0.10156089E+03
O     0.95159933E+02    0.10446354E+03    0.10046141E+03
H     0.96058005E+02    0.10424282E+03    0.10095393E+03
H     0.95224018E+02    0.10533621E+03    0.99894301E+02
O     0.95287648E+02    0.10151316E+03    0.99758217E+02
H     0.94919355E+02    0.10244877E+03    0.99820682E+02
H     0.96021161E+02    0.10144447E+03    0.99040027E+02
O     0.96954752E+02    0.96854805E+02    0.99160215E+02
H     0.96167088E+02    0.97499551E+02    0.99002545E+02
H     0.96855392E+02    0.96425509E+02    0.10009037E+03
O     0.96572947E+02    0.92601468E+02    0.10469541E+03
H     0.97254390E+02    0.92064949E+02    0.10522027E+03
H     0.96466829E+02    0.92108307E+02    0.10381328E+03
O     0.95267864E+02    0.98798667E+02    0.10047720E+03
H     0.94721662E+02    0.98421614E+02    0.10127730E+03
H     0.95038698E+02    0.99762166E+02    0.10030628E+03
O     0.95118949E+02    0.93543621E+02    0.10188140E+03
H     0.95466973E+02    0.92595626E+02    0.10184453E+03
H     0.94266375E+02    0.93550555E+02    0.10248087E+03
O     0.99293495E+02    0.94914519E+02    0.10205796E+03
H     0.98392856E+02    0.95337641E+02    0.10178485E+03
H     0.99372141E+02    0.93963859E+02    0.10173256E+03
O     0.95541919E+02    0.95295482E+02    0.10439415E+03
H     0.96072200E+02    0.95898713E+02    0.10504634E+03
H     0.95975861E+02    0.94360569E+02    0.10424584E+03
O     0.94938371E+02    0.99885132E+02    0.10441383E+03
H     0.95369271E+02    0.10046258E+03    0.10376366E+03
H     0.95083687E+02    0.10033316E+03    0.10533426E+03
O     0.99589019E+02    0.90793436E+02    0.10339766E+03
H     0.10029452E+03    0.91348125E+02    0.10386055E+03
H     0.99057737E+02    0.90325390E+02    0.10408214E+03
O     0.97708499E+02    0.10390511E+03    0.10167040E+03
H     0.98404630E+02    0.10427834E+03    0.10231807E+03
H     0.97278762E+02    0.10301863E+03    0.10199400E+03
O     0.10171178E+03    0.92193359E+02    0.10436455E+03
H     0.10107882E+03    0.92972850E+02    0.10443758E+03
H     0.10263025E+03    0.92389683E+02    0.10474105E+03
O     0.98466167E+02    0.97705939E+02    0.10363449E+03
H     0.98049674E+02    0.98322218E+02    0.10298190E+03
H     0.99165428E+02    0.97031483E+02    0.10328679E+03
O     0.99573979E+02    0.97833630E+02    0.99474681E+02
H     0.10019818E+03    0.97016885E+02    0.99429200E+02
H     0.98619451E+02    0.97481111E+02    0.99204557E+02
O     0.10076064E+03    0.95091213E+02    0.99608231E+02
H     0.10032230E+03    0.95067439E+02    0.10055828E+03
H     0.10153674E+03    0.94447220E+02    0.99633113E+02
O     0.97496856E+02    0.10193490E+03    0.98184683E+02
H     0.97520523E+02    0.10204587E+03    0.97156960E+02
H     0.98372564E+02    0.10148125E+03    0.98558459E+02
O     0.96230469E+02    0.90563795E+02    0.99826255E+02
H     0.96140532E+02    0.89747447E+02    0.99166607E+02
H     0.95940605E+02    0.91451142E+02    0.99444706E+02
O     0.98106441E+02    0.96047611E+02    0.10576298E+03
H     0.98169897E+02    0.96898369E+02    0.10522399E+03
H     0.97669326E+02    0.96184742E+02    0.10669359E+03
