          97
Time step:                2500 Sim. Time [au]       25000.00
C     0.10167596E+03    0.94439830E+02    0.10450099E+03
H     0.10112165E+03    0.94729962E+02    0.10364432E+03
H     0.10253640E+03    0.95069617E+02    0.10459424E+03
H     0.10185689E+03    0.93359699E+02    0.10433337E+03
H     0.10088290E+03    0.94550830E+02    0.10529060E+03
C     0.94220543E+02    0.97558020E+02    0.10526581E+03
O     0.94178269E+02    0.96881167E+02    0.10426860E+03
O     0.92729914E+02    0.97449204E+02    0.10096471E+03
H     0.92474983E+02    0.97321362E+02    0.10193355E+03
H     0.92348256E+02    0.96659450E+02    0.10048045E+03
O     0.97938009E+02    0.97231188E+02    0.98196642E+02
H     0.98409270E+02    0.96670740E+02    0.98866599E+02
H     0.97640394E+02    0.96679223E+02    0.97375756E+02
O     0.98552995E+02    0.98910638E+02    0.10082080E+03
H     0.97777681E+02    0.99411925E+02    0.10124637E+03
H     0.98433304E+02    0.98763341E+02    0.99801030E+02
O     0.97578399E+02    0.90583735E+02    0.99933489E+02
H     0.98436966E+02    0.91098394E+02    0.10003682E+03
H     0.97004939E+02    0.91189339E+02    0.99374273E+02
O     0.95331729E+02    0.94600226E+02    0.99799618E+02
H     0.94979011E+02    0.94139608E+02    0.10062908E+03
H     0.95205472E+02    0.95595039E+02    0.99703716E+02
O     0.98298869E+02    0.95756514E+02    0.10570142E+03
H     0.97400483E+02    0.95337547E+02    0.10532351E+03
H     0.98959065E+02    0.95038632E+02    0.10597481E+03
O     0.96766115E+02    0.96508135E+02    0.10206090E+03
H     0.97172056E+02    0.97257555E+02    0.10261656E+03
H     0.96179730E+02    0.96968105E+02    0.10135255E+03
O     0.96766766E+02    0.99816696E+02    0.10466010E+03
H     0.97460475E+02    0.99097599E+02    0.10438756E+03
H     0.97069671E+02    0.10019930E+03    0.10551639E+03
O     0.10118462E+03    0.90051429E+02    0.10248387E+03
H     0.10154612E+03    0.89418549E+02    0.10175919E+03
H     0.10070151E+03    0.90882115E+02    0.10205810E+03
O     0.96096430E+02    0.10246491E+03    0.10035607E+03
H     0.96407056E+02    0.10318099E+03    0.10108276E+03
H     0.95935120E+02    0.10157051E+03    0.10077980E+03
O     0.99060049E+02    0.93137590E+02    0.97624897E+02
H     0.99594995E+02    0.93237581E+02    0.98466615E+02
H     0.98046513E+02    0.92906616E+02    0.97630541E+02
O     0.96158244E+02    0.89640693E+02    0.10214562E+03
H     0.96747320E+02    0.89959099E+02    0.10134349E+03
H     0.96631807E+02    0.88811057E+02    0.10255082E+03
O     0.93419653E+02    0.94064313E+02    0.10463250E+03
H     0.94368157E+02    0.94192461E+02    0.10498939E+03
H     0.93167789E+02    0.93090687E+02    0.10480784E+03
O     0.97338162E+02    0.87524927E+02    0.10357086E+03
H     0.97820079E+02    0.86656729E+02    0.10337458E+03
H     0.97938042E+02    0.88290609E+02    0.10401786E+03
O     0.96528503E+02    0.94436311E+02    0.10399808E+03
H     0.96733892E+02    0.93513115E+02    0.10360163E+03
H     0.96378205E+02    0.95152872E+02    0.10326202E+03
O     0.93932135E+02    0.99811686E+02    0.10038575E+03
H     0.93316172E+02    0.98969106E+02    0.10044939E+03
H     0.93767030E+02    0.10045379E+03    0.99661258E+02
O     0.96900446E+02    0.91732437E+02    0.10377461E+03
H     0.96543427E+02    0.91038992E+02    0.10311017E+03
H     0.96367990E+02    0.91791881E+02    0.10463960E+03
O     0.98454910E+02    0.97917476E+02    0.10385099E+03
H     0.99266083E+02    0.97803003E+02    0.10320817E+03
H     0.98519317E+02    0.97244328E+02    0.10461490E+03
O     0.99041471E+02    0.96175131E+02    0.10081809E+03
H     0.98063256E+02    0.96006401E+02    0.10106621E+03
H     0.99231478E+02    0.97174019E+02    0.10075936E+03
O     0.95639869E+02    0.97567875E+02    0.99929368E+02
H     0.95164823E+02    0.98479943E+02    0.99968531E+02
H     0.96343446E+02    0.97545908E+02    0.99210992E+02
O     0.94285784E+02    0.93417939E+02    0.10205220E+03
H     0.93930007E+02    0.93846508E+02    0.10290060E+03
H     0.94078711E+02    0.92437718E+02    0.10204674E+03
O     0.94401081E+02    0.10170285E+03    0.98497071E+02
H     0.94975445E+02    0.10220814E+03    0.99148854E+02
H     0.94336230E+02    0.10219115E+03    0.97589616E+02
O     0.93733752E+02    0.91296886E+02    0.10487363E+03
H     0.93705936E+02    0.90377653E+02    0.10535364E+03
H     0.93367344E+02    0.91221835E+02    0.10393374E+03
O     0.97488140E+02    0.95079714E+02    0.96324227E+02
H     0.98303832E+02    0.94651590E+02    0.96608635E+02
H     0.96958250E+02    0.94410688E+02    0.95744690E+02
O     0.93371612E+02    0.90518229E+02    0.10209765E+03
H     0.92701745E+02    0.90105227E+02    0.10147735E+03
H     0.94227344E+02    0.89981532E+02    0.10213773E+03
O     0.99414225E+02    0.92029850E+02    0.10134806E+03
H     0.99740579E+02    0.92859939E+02    0.10087218E+03
H     0.98601899E+02    0.92247073E+02    0.10194165E+03
O     0.10050865E+03    0.94166371E+02    0.10000320E+03
H     0.10002565E+03    0.94976292E+02    0.10031040E+03
H     0.10154429E+03    0.94304297E+02    0.10002845E+03
O     0.98786654E+02    0.89638977E+02    0.10413717E+03
H     0.98241217E+02    0.90500513E+02    0.10407533E+03
H     0.99721895E+02    0.89661282E+02    0.10380662E+03
O     0.96129612E+02    0.10018160E+03    0.10202826E+03
H     0.95194707E+02    0.99998842E+02    0.10164430E+03
H     0.96052981E+02    0.10009993E+03    0.10306507E+03
O     0.96264754E+02    0.92544301E+02    0.98454925E+02
H     0.95687005E+02    0.92097080E+02    0.97789392E+02
H     0.95850292E+02    0.93407132E+02    0.98812256E+02
