          97
Time step:               17000 Sim. Time [au]      170000.00
C     0.94689985E+02    0.95673299E+02    0.11064296E+03
H     0.94810561E+02    0.96629822E+02    0.11125121E+03
H     0.95045482E+02    0.94771517E+02    0.11122879E+03
H     0.95399889E+02    0.95825331E+02    0.10989533E+03
H     0.93701929E+02    0.95542610E+02    0.11021068E+03
C     0.94597645E+02    0.94677238E+02    0.10467268E+03
O     0.94023305E+02    0.94713238E+02    0.10364983E+03
O     0.98979916E+02    0.95552152E+02    0.10781653E+03
H     0.99534901E+02    0.95252952E+02    0.10859585E+03
H     0.99494356E+02    0.95213493E+02    0.10702471E+03
O     0.99404856E+02    0.98793833E+02    0.10229571E+03
H     0.98995100E+02    0.99677129E+02    0.10234484E+03
H     0.10003168E+03    0.98827479E+02    0.10148387E+03
O     0.10088897E+03    0.96513825E+02    0.10328524E+03
H     0.10164902E+03    0.96594180E+02    0.10390455E+03
H     0.10034798E+03    0.97359052E+02    0.10308717E+03
O     0.95739980E+02    0.94759824E+02    0.97463806E+02
H     0.96364078E+02    0.93975899E+02    0.97730705E+02
H     0.96165169E+02    0.95659933E+02    0.97716978E+02
O     0.95674526E+02    0.96970388E+02    0.10060034E+03
H     0.94642085E+02    0.97033833E+02    0.10052066E+03
H     0.95904534E+02    0.97331416E+02    0.10157090E+03
O     0.98169342E+02    0.90915704E+02    0.10313117E+03
H     0.97590482E+02    0.91354011E+02    0.10240207E+03
H     0.98059783E+02    0.89873655E+02    0.10308513E+03
O     0.97515161E+02    0.94653228E+02    0.10312400E+03
H     0.97766516E+02    0.94241039E+02    0.10396495E+03
H     0.97441517E+02    0.95687820E+02    0.10320415E+03
O     0.10011131E+03    0.94803844E+02    0.10561090E+03
H     0.99546807E+02    0.93956305E+02    0.10554010E+03
H     0.10004924E+03    0.95221418E+02    0.10469320E+03
O     0.94870523E+02    0.91641420E+02    0.96778965E+02
H     0.94552584E+02    0.92462858E+02    0.96313653E+02
H     0.95644368E+02    0.91855068E+02    0.97344910E+02
O     0.10244010E+03    0.98475064E+02    0.10559188E+03
H     0.10328753E+03    0.98872167E+02    0.10526558E+03
H     0.10264924E+03    0.97512976E+02    0.10594126E+03
O     0.99602129E+02    0.96906313E+02    0.98915387E+02
H     0.99492093E+02    0.96323798E+02    0.99706969E+02
H     0.98780554E+02    0.96858683E+02    0.98275820E+02
O     0.93120129E+02    0.94673162E+02    0.96910185E+02
H     0.94104157E+02    0.94660882E+02    0.97113015E+02
H     0.92681982E+02    0.93853495E+02    0.97375202E+02
O     0.90518725E+02    0.92578335E+02    0.10044161E+03
H     0.90212666E+02    0.93540993E+02    0.10036309E+03
H     0.89798727E+02    0.91954873E+02    0.10081897E+03
O     0.92403202E+02    0.92593769E+02    0.98536743E+02
H     0.91679919E+02    0.92538857E+02    0.99260430E+02
H     0.92417730E+02    0.91687587E+02    0.98021538E+02
O     0.96681395E+02    0.92716761E+02    0.10145216E+03
H     0.95851937E+02    0.93035752E+02    0.10094453E+03
H     0.96922883E+02    0.93430480E+02    0.10215852E+03
O     0.97885509E+02    0.97444179E+02    0.10588748E+03
H     0.98054477E+02    0.96922537E+02    0.10674592E+03
H     0.98721717E+02    0.98031469E+02    0.10569362E+03
O     0.94414981E+02    0.93781481E+02    0.99852859E+02
H     0.94755565E+02    0.94381983E+02    0.99089387E+02
H     0.93633553E+02    0.93200335E+02    0.99539728E+02
O     0.98403346E+02    0.92748386E+02    0.10507770E+03
H     0.97884733E+02    0.92460263E+02    0.10592405E+03
H     0.98411830E+02    0.92113353E+02    0.10431171E+03
O     0.99555679E+02    0.95228212E+02    0.10134957E+03
H     0.98647696E+02    0.95072508E+02    0.10181453E+03
H     0.10021557E+03    0.95747942E+02    0.10195636E+03
O     0.97130827E+02    0.97419149E+02    0.10314359E+03
H     0.97338862E+02    0.97399706E+02    0.10412116E+03
H     0.97901531E+02    0.97937145E+02    0.10267567E+03
O     0.92913497E+02    0.96099927E+02    0.10086737E+03
H     0.93560888E+02    0.95319548E+02    0.10076267E+03
H     0.91975073E+02    0.95797570E+02    0.10071848E+03
O     0.99818599E+02    0.99050277E+02    0.10501887E+03
H     0.10081605E+03    0.99026057E+02    0.10527814E+03
H     0.99856559E+02    0.98980258E+02    0.10399505E+03
O     0.90202245E+02    0.95254191E+02    0.99897572E+02
H     0.90021055E+02    0.96215076E+02    0.10017626E+03
H     0.90227022E+02    0.95020539E+02    0.98874092E+02
O     0.10073982E+03    0.99169577E+02    0.99869496E+02
H     0.10044906E+03    0.98373639E+02    0.99254449E+02
H     0.10078814E+03    0.10003783E+03    0.99388254E+02
O     0.90192133E+02    0.94978215E+02    0.96865201E+02
H     0.91187630E+02    0.95066444E+02    0.96971541E+02
H     0.89836489E+02    0.94909012E+02    0.95892781E+02
O     0.97060295E+02    0.92691304E+02    0.98270977E+02
H     0.98058836E+02    0.92866012E+02    0.98219679E+02
H     0.96835277E+02    0.92310397E+02    0.99178451E+02
O     0.99577284E+02    0.93661135E+02    0.98807732E+02
H     0.99628315E+02    0.93698201E+02    0.99855860E+02
H     0.10043736E+03    0.93911111E+02    0.98355566E+02
O     0.92849167E+02    0.90036807E+02    0.97482435E+02
H     0.93016238E+02    0.89026290E+02    0.97468358E+02
H     0.93672249E+02    0.90550945E+02    0.97162651E+02
O     0.10276200E+03    0.95650541E+02    0.10580257E+03
H     0.10338674E+03    0.94835953E+02    0.10582451E+03
H     0.10181241E+03    0.95351955E+02    0.10584903E+03
O     0.96957195E+02    0.97016488E+02    0.98147927E+02
H     0.96891785E+02    0.97935262E+02    0.97753547E+02
H     0.96545006E+02    0.96955141E+02    0.99103954E+02
