          97
Time step:               23000 Sim. Time [au]      230000.00
C     0.89695222E+02    0.94902218E+02    0.10396696E+03
H     0.90243213E+02    0.95295353E+02    0.10309137E+03
H     0.88643553E+02    0.94593824E+02    0.10361910E+03
H     0.89745817E+02    0.95667834E+02    0.10475094E+03
H     0.90170134E+02    0.93948345E+02    0.10423535E+03
C     0.94411890E+02    0.92979070E+02    0.10379085E+03
O     0.95418886E+02    0.93465608E+02    0.10407765E+03
O     0.10048624E+03    0.91198809E+02    0.10564712E+03
H     0.10042480E+03    0.90574174E+02    0.10640462E+03
H     0.10141627E+03    0.91499601E+02    0.10533639E+03
O     0.99316876E+02    0.98100527E+02    0.10494575E+03
H     0.98720977E+02    0.98840317E+02    0.10539002E+03
H     0.99591205E+02    0.98353003E+02    0.10395239E+03
O     0.10128853E+03    0.96126383E+02    0.10249733E+03
H     0.10118185E+03    0.95697007E+02    0.10343466E+03
H     0.10102345E+03    0.97113111E+02    0.10246222E+03
O     0.95477699E+02    0.96645823E+02    0.98826314E+02
H     0.95606202E+02    0.95653157E+02    0.98782952E+02
H     0.95826653E+02    0.97045125E+02    0.99697025E+02
O     0.94823140E+02    0.96338924E+02    0.10296193E+03
H     0.94042449E+02    0.96563216E+02    0.10355350E+03
H     0.95633200E+02    0.96163140E+02    0.10359783E+03
O     0.96355279E+02    0.90530414E+02    0.10240708E+03
H     0.96531456E+02    0.91285909E+02    0.10170826E+03
H     0.95656270E+02    0.89839346E+02    0.10208038E+03
O     0.98150422E+02    0.94128559E+02    0.10245420E+03
H     0.98356290E+02    0.93346999E+02    0.10309043E+03
H     0.97940274E+02    0.95028391E+02    0.10284697E+03
O     0.10110882E+03    0.92902605E+02    0.10298805E+03
H     0.10019549E+03    0.92480422E+02    0.10318914E+03
H     0.10105109E+03    0.93258038E+02    0.10203163E+03
O     0.94108714E+02    0.94548447E+02    0.96818823E+02
H     0.93766121E+02    0.95494891E+02    0.96965711E+02
H     0.95107899E+02    0.94358000E+02    0.97098674E+02
O     0.10296054E+03    0.94824309E+02    0.10543080E+03
H     0.10350104E+03    0.94841278E+02    0.10626241E+03
H     0.10294040E+03    0.93871029E+02    0.10494666E+03
O     0.98449514E+02    0.97534546E+02    0.10010879E+03
H     0.98323184E+02    0.97059259E+02    0.99178002E+02
H     0.97588871E+02    0.97662938E+02    0.10061520E+03
O     0.93476167E+02    0.97640952E+02    0.97208516E+02
H     0.94446076E+02    0.97381807E+02    0.97381706E+02
H     0.92876547E+02    0.97032602E+02    0.97792228E+02
O     0.90261001E+02    0.96502266E+02    0.97456119E+02
H     0.90672825E+02    0.97113710E+02    0.96694534E+02
H     0.89400821E+02    0.96053458E+02    0.97178421E+02
O     0.92165670E+02    0.95320758E+02    0.99144896E+02
H     0.91314506E+02    0.95892540E+02    0.99052196E+02
H     0.92040502E+02    0.94416892E+02    0.98711886E+02
O     0.96311122E+02    0.92835852E+02    0.10105217E+03
H     0.95579276E+02    0.93462923E+02    0.10082858E+03
H     0.97118283E+02    0.93307572E+02    0.10155289E+03
O     0.98619712E+02    0.93676962E+02    0.10577255E+03
H     0.99112771E+02    0.92779194E+02    0.10579004E+03
H     0.99259938E+02    0.94398356E+02    0.10607846E+03
O     0.94362632E+02    0.94855085E+02    0.10082169E+03
H     0.94300948E+02    0.95434356E+02    0.10163949E+03
H     0.93484028E+02    0.94926810E+02    0.10032648E+03
O     0.98501965E+02    0.91656445E+02    0.10335915E+03
H     0.98859773E+02    0.91186831E+02    0.10417664E+03
H     0.97692735E+02    0.91170980E+02    0.10304383E+03
O     0.10021462E+03    0.94544295E+02    0.10070454E+03
H     0.99331232E+02    0.94241568E+02    0.10103177E+03
H     0.10060965E+03    0.95280985E+02    0.10127131E+03
O     0.97309801E+02    0.96078077E+02    0.10442017E+03
H     0.97429709E+02    0.95324062E+02    0.10512392E+03
H     0.97820525E+02    0.96887755E+02    0.10472125E+03
O     0.92855703E+02    0.96905740E+02    0.10470531E+03
H     0.93058441E+02    0.97134647E+02    0.10567649E+03
H     0.91871919E+02    0.96681043E+02    0.10458669E+03
O     0.10053628E+03    0.95591407E+02    0.10622889E+03
H     0.10147470E+03    0.95300994E+02    0.10598335E+03
H     0.10042208E+03    0.96547769E+02    0.10588513E+03
O     0.91353042E+02    0.98377308E+02    0.95694082E+02
H     0.91207351E+02    0.99184222E+02    0.95158524E+02
H     0.92285033E+02    0.98310188E+02    0.96162507E+02
O     0.10013287E+03    0.98638213E+02    0.10216825E+03
H     0.99642440E+02    0.97986853E+02    0.10152482E+03
H     0.10047714E+03    0.99486819E+02    0.10170705E+03
O     0.94028516E+02    0.99441465E+02    0.10010085E+03
H     0.93497308E+02    0.10027452E+03    0.10024908E+03
H     0.93984576E+02    0.98983968E+02    0.99170638E+02
O     0.96640956E+02    0.94108794E+02    0.98353691E+02
H     0.97608136E+02    0.94405867E+02    0.98311634E+02
H     0.96481793E+02    0.93590398E+02    0.99187084E+02
O     0.99123527E+02    0.95105286E+02    0.98313066E+02
H     0.99666285E+02    0.94920004E+02    0.99163040E+02
H     0.99795184E+02    0.95434488E+02    0.97604736E+02
O     0.91854121E+02    0.93186885E+02    0.96988135E+02
H     0.92100860E+02    0.92350088E+02    0.97483191E+02
H     0.92670211E+02    0.93635076E+02    0.96585730E+02
O     0.10311386E+03    0.92004064E+02    0.10450963E+03
H     0.10410044E+03    0.91942424E+02    0.10418218E+03
H     0.10246807E+03    0.92240997E+02    0.10376657E+03
O     0.96113932E+02    0.97949709E+02    0.10116195E+03
H     0.95432789E+02    0.98602602E+02    0.10077709E+03
H     0.95641492E+02    0.97418820E+02    0.10189147E+03
