          97
Time step:               12000 Sim. Time [au]      120000.00
C     0.10163961E+03    0.93182865E+02    0.10641173E+03
H     0.10124828E+03    0.92193894E+02    0.10694211E+03
H     0.10264395E+03    0.92811549E+02    0.10598260E+03
H     0.10182386E+03    0.93991532E+02    0.10705307E+03
H     0.10110931E+03    0.93591934E+02    0.10556874E+03
C     0.94837641E+02    0.93320846E+02    0.10512897E+03
O     0.95145653E+02    0.93903222E+02    0.10612139E+03
O     0.94261903E+02    0.10081038E+03    0.10522711E+03
H     0.94142920E+02    0.10174698E+03    0.10559207E+03
H     0.94271907E+02    0.10061287E+03    0.10425492E+03
O     0.97842845E+02    0.99722803E+02    0.10060944E+03
H     0.97214474E+02    0.10020895E+03    0.99975382E+02
H     0.98525458E+02    0.99195749E+02    0.10010570E+03
O     0.10126886E+03    0.97675636E+02    0.10134929E+03
H     0.10088829E+03    0.97928562E+02    0.10226849E+03
H     0.10062789E+03    0.97865387E+02    0.10055819E+03
O     0.95751413E+02    0.92407470E+02    0.99131269E+02
H     0.96663630E+02    0.91965939E+02    0.99150296E+02
H     0.95784564E+02    0.93358652E+02    0.99002509E+02
O     0.95440969E+02    0.96720479E+02    0.10033766E+03
H     0.94877478E+02    0.95930243E+02    0.10060385E+03
H     0.95948192E+02    0.97175218E+02    0.10111358E+03
O     0.98543385E+02    0.92321704E+02    0.10504639E+03
H     0.98245885E+02    0.92197446E+02    0.10405824E+03
H     0.98809952E+02    0.91475957E+02    0.10551294E+03
O     0.97399571E+02    0.95332343E+02    0.10348189E+03
H     0.97460964E+02    0.95359542E+02    0.10448028E+03
H     0.97203377E+02    0.96220156E+02    0.10304802E+03
O     0.98774603E+02    0.97360175E+02    0.10580292E+03
H     0.98673578E+02    0.96419609E+02    0.10619086E+03
H     0.98019298E+02    0.98043115E+02    0.10574243E+03
O     0.97421611E+02    0.88644093E+02    0.99986423E+02
H     0.98195942E+02    0.88063270E+02    0.99693822E+02
H     0.97728600E+02    0.89637645E+02    0.99995136E+02
O     0.10119366E+03    0.10140590E+03    0.10381313E+03
H     0.10203517E+03    0.10197152E+03    0.10374720E+03
H     0.10138768E+03    0.10044361E+03    0.10372084E+03
O     0.98763546E+02    0.95748368E+02    0.98417270E+02
H     0.99179697E+02    0.94915194E+02    0.98823324E+02
H     0.97784356E+02    0.95528411E+02    0.98211520E+02
O     0.93544919E+02    0.92297936E+02    0.97274547E+02
H     0.94410127E+02    0.92329086E+02    0.97830607E+02
H     0.93105551E+02    0.91361215E+02    0.97327958E+02
O     0.92021703E+02    0.92106166E+02    0.10057930E+03
H     0.91770907E+02    0.91447882E+02    0.99854972E+02
H     0.91687539E+02    0.93078418E+02    0.10036931E+03
O     0.92860770E+02    0.89734037E+02    0.97774486E+02
H     0.92701254E+02    0.88977776E+02    0.97134404E+02
H     0.93310649E+02    0.89441372E+02    0.98677754E+02
O     0.97208888E+02    0.92539117E+02    0.10270987E+03
H     0.96224770E+02    0.92342509E+02    0.10259207E+03
H     0.97448905E+02    0.93565087E+02    0.10278734E+03
O     0.96759019E+02    0.99335796E+02    0.10490491E+03
H     0.95908899E+02    0.99700961E+02    0.10538872E+03
H     0.97375087E+02    0.10007569E+03    0.10463055E+03
O     0.94448020E+02    0.92030574E+02    0.10162072E+03
H     0.94902048E+02    0.92191681E+02    0.10069961E+03
H     0.93466264E+02    0.92067297E+02    0.10141206E+03
O     0.97808217E+02    0.94745348E+02    0.10634223E+03
H     0.97289359E+02    0.94583311E+02    0.10715996E+03
H     0.98116052E+02    0.93814310E+02    0.10587762E+03
O     0.99879419E+02    0.95085644E+02    0.10188014E+03
H     0.99083970E+02    0.95178693E+02    0.10253709E+03
H     0.10046711E+03    0.95887991E+02    0.10181966E+03
O     0.97005179E+02    0.97821006E+02    0.10253751E+03
H     0.96874352E+02    0.98158756E+02    0.10348837E+03
H     0.97180817E+02    0.98610339E+02    0.10192350E+03
O     0.93501386E+02    0.94754171E+02    0.10107700E+03
H     0.93600563E+02    0.94101512E+02    0.10187319E+03
H     0.92546055E+02    0.94857742E+02    0.10081350E+03
O     0.98330504E+02    0.10134041E+03    0.10337877E+03
H     0.99346024E+02    0.10136051E+03    0.10353461E+03
H     0.98182739E+02    0.10113441E+03    0.10243229E+03
O     0.90854147E+02    0.94732705E+02    0.99912925E+02
H     0.89937603E+02    0.95126177E+02    0.10011716E+03
H     0.91146830E+02    0.94844656E+02    0.98941141E+02
O     0.98996633E+02    0.98377000E+02    0.98669381E+02
H     0.99041372E+02    0.97404474E+02    0.98738393E+02
H     0.99144515E+02    0.98708149E+02    0.97696382E+02
O     0.91569443E+02    0.94489782E+02    0.97234921E+02
H     0.90932801E+02    0.94443153E+02    0.96471403E+02
H     0.92352178E+02    0.93909125E+02    0.97050069E+02
O     0.98207730E+02    0.91479439E+02    0.10032133E+03
H     0.98971574E+02    0.92063521E+02    0.99949268E+02
H     0.97923080E+02    0.91824218E+02    0.10125186E+03
O     0.99763195E+02    0.93641980E+02    0.99645064E+02
H     0.99503417E+02    0.94073366E+02    0.10053267E+03
H     0.10081349E+03    0.93653757E+02    0.99569146E+02
O     0.94527712E+02    0.89090515E+02    0.99637574E+02
H     0.94725695E+02    0.89647308E+02    0.10043925E+03
H     0.95321747E+02    0.88554061E+02    0.99296034E+02
O     0.99954567E+02    0.98130396E+02    0.10357574E+03
H     0.98971786E+02    0.98245242E+02    0.10319786E+03
H     0.99879337E+02    0.97694051E+02    0.10447402E+03
O     0.96055936E+02    0.95167848E+02    0.98335863E+02
H     0.95479301E+02    0.95136713E+02    0.97468714E+02
H     0.95724584E+02    0.95967225E+02    0.98916807E+02
