          97
Time step:               13000 Sim. Time [au]      130000.00
C     0.10089042E+03    0.93693049E+02    0.10787465E+03
H     0.10046788E+03    0.92701082E+02    0.10748635E+03
H     0.10137007E+03    0.93682236E+02    0.10885746E+03
H     0.99972727E+02    0.94329503E+02    0.10814823E+03
H     0.10163942E+03    0.93999752E+02    0.10717906E+03
C     0.94613207E+02    0.93775140E+02    0.10535270E+03
O     0.94655301E+02    0.93181742E+02    0.10634946E+03
O     0.95024946E+02    0.10082183E+03    0.10660630E+03
H     0.94608015E+02    0.10153259E+03    0.10603591E+03
H     0.94565172E+02    0.10038692E+03    0.10739337E+03
O     0.97818967E+02    0.99381729E+02    0.10089055E+03
H     0.97756794E+02    0.10038548E+03    0.10087812E+03
H     0.98415631E+02    0.99021775E+02    0.10012212E+03
O     0.10053703E+03    0.96920730E+02    0.10121893E+03
H     0.10138492E+03    0.97280526E+02    0.10157886E+03
H     0.10010582E+03    0.97383595E+02    0.10038580E+03
O     0.95776498E+02    0.93318191E+02    0.98734179E+02
H     0.96597802E+02    0.92962372E+02    0.99113897E+02
H     0.95898244E+02    0.94292514E+02    0.98587300E+02
O     0.94935039E+02    0.96301653E+02    0.10084124E+03
H     0.93973806E+02    0.96042688E+02    0.10113965E+03
H     0.95439377E+02    0.96774526E+02    0.10154215E+03
O     0.97581192E+02    0.92369576E+02    0.10483933E+03
H     0.97446286E+02    0.92783228E+02    0.10391809E+03
H     0.97700083E+02    0.91372356E+02    0.10477939E+03
O     0.98166078E+02    0.95136714E+02    0.10315368E+03
H     0.98191621E+02    0.95058682E+02    0.10418590E+03
H     0.97796410E+02    0.96032850E+02    0.10282777E+03
O     0.99280635E+02    0.97153932E+02    0.10568140E+03
H     0.99100205E+02    0.96187947E+02    0.10592205E+03
H     0.98411432E+02    0.97654935E+02    0.10567454E+03
O     0.97424089E+02    0.89470987E+02    0.99531448E+02
H     0.98175182E+02    0.89174466E+02    0.98895433E+02
H     0.97496805E+02    0.90430078E+02    0.99915003E+02
O     0.10183743E+03    0.10068251E+03    0.10445669E+03
H     0.10254646E+03    0.10088238E+03    0.10519283E+03
H     0.10170226E+03    0.99715343E+02    0.10418281E+03
O     0.98809095E+02    0.95572825E+02    0.98035258E+02
H     0.99227389E+02    0.94650719E+02    0.98286620E+02
H     0.97854554E+02    0.95687895E+02    0.98303831E+02
O     0.93559564E+02    0.92677777E+02    0.97197280E+02
H     0.94478146E+02    0.92881841E+02    0.97589701E+02
H     0.93387047E+02    0.91653366E+02    0.97235232E+02
O     0.91357371E+02    0.91900490E+02    0.99130832E+02
H     0.92235073E+02    0.92322641E+02    0.98719121E+02
H     0.90896702E+02    0.92643099E+02    0.99627624E+02
O     0.93043150E+02    0.90123510E+02    0.97448289E+02
H     0.92114565E+02    0.90339410E+02    0.97875985E+02
H     0.93578228E+02    0.89591947E+02    0.98096494E+02
O     0.96627460E+02    0.92949367E+02    0.10227998E+03
H     0.95734723E+02    0.92698591E+02    0.10183645E+03
H     0.96671766E+02    0.93927293E+02    0.10250718E+03
O     0.96985728E+02    0.98935793E+02    0.10511635E+03
H     0.96316283E+02    0.99456663E+02    0.10563827E+03
H     0.97658270E+02    0.99564643E+02    0.10462220E+03
O     0.94162192E+02    0.92973775E+02    0.10078421E+03
H     0.94641781E+02    0.93208614E+02    0.99939812E+02
H     0.93606583E+02    0.92109490E+02    0.10076768E+03
O     0.98090079E+02    0.94675223E+02    0.10591759E+03
H     0.97469513E+02    0.95103479E+02    0.10663578E+03
H     0.97773257E+02    0.93771251E+02    0.10557470E+03
O     0.99929362E+02    0.94412231E+02    0.10136939E+03
H     0.99165685E+02    0.94363770E+02    0.10203404E+03
H     0.10029002E+03    0.95379681E+02    0.10129586E+03
O     0.97044721E+02    0.97478334E+02    0.10272800E+03
H     0.96887470E+02    0.97878279E+02    0.10367893E+03
H     0.97453379E+02    0.98203884E+02    0.10214268E+03
O     0.92642198E+02    0.95094730E+02    0.10162130E+03
H     0.93133295E+02    0.94274018E+02    0.10134292E+03
H     0.91696790E+02    0.94998855E+02    0.10118785E+03
O     0.98601111E+02    0.10047045E+03    0.10363951E+03
H     0.99529325E+02    0.10075038E+03    0.10397554E+03
H     0.98610938E+02    0.99936166E+02    0.10277814E+03
O     0.90574070E+02    0.94484284E+02    0.99932677E+02
H     0.89638793E+02    0.94851535E+02    0.99831469E+02
H     0.91081018E+02    0.94685832E+02    0.99056067E+02
O     0.99720262E+02    0.98449763E+02    0.99007923E+02
H     0.99316834E+02    0.97664285E+02    0.98467056E+02
H     0.10054593E+03    0.98771055E+02    0.98590012E+02
O     0.91787364E+02    0.94793224E+02    0.97509897E+02
H     0.91934102E+02    0.95587471E+02    0.96941285E+02
H     0.92271984E+02    0.93990677E+02    0.97199806E+02
O     0.97937479E+02    0.92028390E+02    0.10015159E+03
H     0.98847630E+02    0.92326369E+02    0.99727809E+02
H     0.97850757E+02    0.92489267E+02    0.10106136E+03
O     0.10026494E+03    0.93137100E+02    0.99196788E+02
H     0.10008558E+03    0.93650327E+02    0.10008514E+03
H     0.10124307E+03    0.92968196E+02    0.99031386E+02
O     0.94593003E+02    0.88932724E+02    0.99363217E+02
H     0.94324474E+02    0.88174238E+02    0.99975057E+02
H     0.95598839E+02    0.89006323E+02    0.99317695E+02
O     0.10089267E+03    0.98269757E+02    0.10376204E+03
H     0.10053613E+03    0.97611665E+02    0.10311559E+03
H     0.10059144E+03    0.98164576E+02    0.10478112E+03
O     0.96024119E+02    0.96222599E+02    0.98488505E+02
H     0.95393211E+02    0.96639572E+02    0.97782382E+02
H     0.95620782E+02    0.96244753E+02    0.99447718E+02
