          97
Time step:               10500 Sim. Time [au]      105000.00
C     0.10164083E+03    0.93979394E+02    0.10366206E+03
H     0.10229629E+03    0.93939588E+02    0.10458185E+03
H     0.10075999E+03    0.93408129E+02    0.10348616E+03
H     0.10240494E+03    0.93588287E+02    0.10288844E+03
H     0.10141721E+03    0.95037964E+02    0.10350091E+03
C     0.94672707E+02    0.93957542E+02    0.10522616E+03
O     0.93599255E+02    0.93573442E+02    0.10544376E+03
O     0.92903185E+02    0.10072983E+03    0.10435159E+03
H     0.92361495E+02    0.10087988E+03    0.10348978E+03
H     0.92719327E+02    0.99755482E+02    0.10459050E+03
O     0.97335419E+02    0.98972618E+02    0.10005381E+03
H     0.96950861E+02    0.98395463E+02    0.99327871E+02
H     0.98347632E+02    0.98945409E+02    0.99952536E+02
O     0.10082525E+03    0.97455624E+02    0.10179508E+03
H     0.10077052E+03    0.97848266E+02    0.10272933E+03
H     0.10046135E+03    0.97976212E+02    0.10102656E+03
O     0.96083776E+02    0.92612949E+02    0.99243999E+02
H     0.96998538E+02    0.92450665E+02    0.99621595E+02
H     0.96088620E+02    0.93587735E+02    0.98909790E+02
O     0.95739087E+02    0.96608141E+02    0.10029133E+03
H     0.94936719E+02    0.96157073E+02    0.10076344E+03
H     0.96354792E+02    0.97057950E+02    0.10093917E+03
O     0.98217222E+02    0.92453994E+02    0.10545646E+03
H     0.97823678E+02    0.92558274E+02    0.10451241E+03
H     0.98078840E+02    0.91490797E+02    0.10581108E+03
O     0.97619613E+02    0.95391287E+02    0.10318260E+03
H     0.97489162E+02    0.95011484E+02    0.10412487E+03
H     0.97345292E+02    0.96391055E+02    0.10311755E+03
O     0.98732584E+02    0.97658481E+02    0.10616327E+03
H     0.98638922E+02    0.96638751E+02    0.10621015E+03
H     0.97738169E+02    0.97891451E+02    0.10621150E+03
O     0.97017071E+02    0.89458308E+02    0.99882111E+02
H     0.96812868E+02    0.89004567E+02    0.98981087E+02
H     0.97646869E+02    0.90261919E+02    0.99725088E+02
O     0.99695435E+02    0.10138680E+03    0.10241943E+03
H     0.10052236E+03    0.10190009E+03    0.10219827E+03
H     0.99840111E+02    0.10063365E+03    0.10313998E+03
O     0.99519673E+02    0.95806459E+02    0.98734081E+02
H     0.99792595E+02    0.95312732E+02    0.99594367E+02
H     0.98593301E+02    0.95556239E+02    0.98402950E+02
O     0.93795376E+02    0.91623712E+02    0.98544810E+02
H     0.94690156E+02    0.91965191E+02    0.98900112E+02
H     0.93714378E+02    0.90589766E+02    0.98560901E+02
O     0.92214471E+02    0.92026956E+02    0.10230843E+03
H     0.91406373E+02    0.91472134E+02    0.10269085E+03
H     0.91954511E+02    0.92609717E+02    0.10150205E+03
O     0.93206616E+02    0.88917506E+02    0.98794959E+02
H     0.92462039E+02    0.88207821E+02    0.98697071E+02
H     0.93872638E+02    0.88673485E+02    0.99522393E+02
O     0.97502910E+02    0.92729836E+02    0.10276135E+03
H     0.96582849E+02    0.92325615E+02    0.10246117E+03
H     0.97481732E+02    0.93739572E+02    0.10273476E+03
O     0.95359946E+02    0.99936666E+02    0.10357409E+03
H     0.94505015E+02    0.10019344E+03    0.10399667E+03
H     0.95698381E+02    0.10063609E+03    0.10290594E+03
O     0.94816629E+02    0.92436650E+02    0.10182397E+03
H     0.94814253E+02    0.92111100E+02    0.10087813E+03
H     0.93897776E+02    0.92148426E+02    0.10220119E+03
O     0.98908318E+02    0.94927220E+02    0.10605551E+03
H     0.99917271E+02    0.95038338E+02    0.10574961E+03
H     0.98636618E+02    0.93975132E+02    0.10601593E+03
O     0.10002917E+03    0.94772631E+02    0.10122437E+03
H     0.99235704E+02    0.94541264E+02    0.10179003E+03
H     0.10026391E+03    0.95755195E+02    0.10140195E+03
O     0.96970521E+02    0.97949176E+02    0.10258518E+03
H     0.96521528E+02    0.98633200E+02    0.10318024E+03
H     0.97042434E+02    0.98393611E+02    0.10167989E+03
O     0.94042362E+02    0.95051312E+02    0.10199104E+03
H     0.94474508E+02    0.94144861E+02    0.10202494E+03
H     0.93072285E+02    0.94891127E+02    0.10168568E+03
O     0.96714259E+02    0.10141079E+03    0.10166904E+03
H     0.97636646E+02    0.10167320E+03    0.10193843E+03
H     0.96750987E+02    0.10065590E+03    0.10098136E+03
O     0.91563880E+02    0.94128654E+02    0.10063266E+03
H     0.90750260E+02    0.94730608E+02    0.10059609E+03
H     0.91746408E+02    0.93847343E+02    0.99664467E+02
O     0.10014973E+03    0.98520124E+02    0.99177961E+02
H     0.99753730E+02    0.97613386E+02    0.98803628E+02
H     0.10092085E+03    0.98805573E+02    0.98647746E+02
O     0.91716008E+02    0.93383008E+02    0.98071124E+02
H     0.91237922E+02    0.93164587E+02    0.97232493E+02
H     0.92549421E+02    0.92818654E+02    0.98166491E+02
O     0.98417947E+02    0.91907414E+02    0.10022762E+03
H     0.99422033E+02    0.92150831E+02    0.99983145E+02
H     0.98350315E+02    0.92020307E+02    0.10124737E+03
O     0.10099833E+03    0.92451627E+02    0.99854272E+02
H     0.10082381E+03    0.93429108E+02    0.10016539E+03
H     0.10173716E+03    0.92021539E+02    0.10035891E+03
O     0.94942364E+02    0.88663959E+02    0.10115686E+03
H     0.94899088E+02    0.88605775E+02    0.10219171E+03
H     0.95887049E+02    0.88969070E+02    0.10087435E+03
O     0.99837498E+02    0.99054811E+02    0.10396901E+03
H     0.99168582E+02    0.98569695E+02    0.10343935E+03
H     0.99750422E+02    0.98926295E+02    0.10500624E+03
O     0.96778159E+02    0.95557367E+02    0.97875762E+02
H     0.96420609E+02    0.95732339E+02    0.96951686E+02
H     0.96319784E+02    0.96095686E+02    0.98624385E+02
