          97
Time step:               12500 Sim. Time [au]      125000.00
C     0.10134304E+03    0.93469976E+02    0.10719013E+03
H     0.10020923E+03    0.93158708E+02    0.10719758E+03
H     0.10185954E+03    0.92627418E+02    0.10780451E+03
H     0.10150272E+03    0.94290416E+02    0.10787240E+03
H     0.10181996E+03    0.93554443E+02    0.10622401E+03
C     0.94854131E+02    0.93454327E+02    0.10503079E+03
O     0.94873349E+02    0.93484770E+02    0.10622104E+03
O     0.94833081E+02    0.10086736E+03    0.10583215E+03
H     0.93964931E+02    0.10034007E+03    0.10598001E+03
H     0.94980470E+02    0.10182833E+03    0.10613712E+03
O     0.98055449E+02    0.99575401E+02    0.10106833E+03
H     0.97544188E+02    0.10034509E+03    0.10062489E+03
H     0.98567455E+02    0.99075441E+02    0.10031656E+03
O     0.10100548E+03    0.97249847E+02    0.10092114E+03
H     0.10098364E+03    0.97605826E+02    0.10184297E+03
H     0.10064614E+03    0.97805761E+02    0.10010944E+03
O     0.95912902E+02    0.93011132E+02    0.98901386E+02
H     0.96837993E+02    0.92523200E+02    0.99188224E+02
H     0.96149797E+02    0.93994518E+02    0.98615437E+02
O     0.95232556E+02    0.96278278E+02    0.10058188E+03
H     0.94269292E+02    0.95956833E+02    0.10086589E+03
H     0.95568109E+02    0.96781974E+02    0.10138873E+03
O     0.98149561E+02    0.92115238E+02    0.10517420E+03
H     0.97712088E+02    0.92034277E+02    0.10424965E+03
H     0.98125295E+02    0.91274915E+02    0.10571127E+03
O     0.97605840E+02    0.95201556E+02    0.10340455E+03
H     0.97716983E+02    0.95199147E+02    0.10441504E+03
H     0.97067258E+02    0.96043828E+02    0.10320003E+03
O     0.98982381E+02    0.97608256E+02    0.10586806E+03
H     0.98741112E+02    0.96649340E+02    0.10612667E+03
H     0.98108431E+02    0.98097998E+02    0.10564025E+03
O     0.97455515E+02    0.88898258E+02    0.99770549E+02
H     0.98205928E+02    0.88297732E+02    0.10005026E+03
H     0.97611602E+02    0.89887910E+02    0.99872003E+02
O     0.10131131E+03    0.10089894E+03    0.10425532E+03
H     0.10195480E+03    0.10150317E+03    0.10481138E+03
H     0.10164330E+03    0.99969485E+02    0.10412568E+03
O     0.98811058E+02    0.95568068E+02    0.97927551E+02
H     0.99035198E+02    0.94922496E+02    0.98712964E+02
H     0.97844827E+02    0.95601968E+02    0.97685300E+02
O     0.93648534E+02    0.92477327E+02    0.97628597E+02
H     0.94517374E+02    0.92850177E+02    0.98002107E+02
H     0.93740323E+02    0.91469270E+02    0.97512678E+02
O     0.91602856E+02    0.91749037E+02    0.99243544E+02
H     0.92464603E+02    0.91959219E+02    0.98764965E+02
H     0.91145835E+02    0.92608060E+02    0.99434282E+02
O     0.92941380E+02    0.89887073E+02    0.97590929E+02
H     0.92173932E+02    0.90320693E+02    0.98111707E+02
H     0.93618432E+02    0.89402733E+02    0.98160571E+02
O     0.96861251E+02    0.92529880E+02    0.10248446E+03
H     0.95868219E+02    0.92607472E+02    0.10235683E+03
H     0.97216337E+02    0.93432781E+02    0.10282536E+03
O     0.96881377E+02    0.99186509E+02    0.10490286E+03
H     0.96117341E+02    0.99771305E+02    0.10524257E+03
H     0.97612959E+02    0.99818852E+02    0.10455694E+03
O     0.94191256E+02    0.92897572E+02    0.10110171E+03
H     0.94782547E+02    0.92931982E+02    0.10024259E+03
H     0.93390675E+02    0.92277989E+02    0.10107241E+03
O     0.98176163E+02    0.94695012E+02    0.10633152E+03
H     0.97835534E+02    0.94556305E+02    0.10723669E+03
H     0.98389862E+02    0.93826809E+02    0.10583498E+03
O     0.10006947E+03    0.94861013E+02    0.10169004E+03
H     0.99394241E+02    0.95007623E+02    0.10246132E+03
H     0.10040807E+03    0.95765961E+02    0.10142508E+03
O     0.96663377E+02    0.97703307E+02    0.10264477E+03
H     0.96612535E+02    0.98020749E+02    0.10362778E+03
H     0.96988856E+02    0.98433081E+02    0.10201959E+03
O     0.92903821E+02    0.95331815E+02    0.10169132E+03
H     0.93549717E+02    0.94540357E+02    0.10170729E+03
H     0.92009691E+02    0.95095421E+02    0.10124648E+03
O     0.98754405E+02    0.10064984E+03    0.10345230E+03
H     0.99756852E+02    0.10095502E+03    0.10358103E+03
H     0.98620171E+02    0.10007620E+03    0.10264137E+03
O     0.90782834E+02    0.94524076E+02    0.99959175E+02
H     0.89813425E+02    0.94440399E+02    0.10022507E+03
H     0.90800306E+02    0.94646591E+02    0.98937481E+02
O     0.98954160E+02    0.98394479E+02    0.98841691E+02
H     0.98912702E+02    0.97404492E+02    0.98582615E+02
H     0.98750897E+02    0.98956776E+02    0.98007822E+02
O     0.91624495E+02    0.94719814E+02    0.97324582E+02
H     0.91670972E+02    0.95185984E+02    0.96390520E+02
H     0.92274568E+02    0.93895064E+02    0.97401680E+02
O     0.97906891E+02    0.91695621E+02    0.10008413E+03
H     0.98786074E+02    0.92137400E+02    0.99793239E+02
H     0.97525188E+02    0.91906034E+02    0.10098143E+03
O     0.99999725E+02    0.93351944E+02    0.99589808E+02
H     0.99981739E+02    0.93818943E+02    0.10047104E+03
H     0.10090987E+03    0.92985861E+02    0.99324125E+02
O     0.94664713E+02    0.89141039E+02    0.99393329E+02
H     0.94115634E+02    0.89144287E+02    0.10024950E+03
H     0.95665693E+02    0.88943723E+02    0.99562788E+02
O     0.10044908E+03    0.98375770E+02    0.10378914E+03
H     0.99954986E+02    0.99260588E+02    0.10377732E+03
H     0.10028502E+03    0.97816579E+02    0.10462869E+03
O     0.95960319E+02    0.95694361E+02    0.98061466E+02
H     0.95123368E+02    0.95972018E+02    0.97548273E+02
H     0.95804105E+02    0.95841979E+02    0.99043739E+02
