          97
Time step:                8000 Sim. Time [au]       80000.00
C     0.10167767E+03    0.92267585E+02    0.10375733E+03
H     0.10062037E+03    0.92354675E+02    0.10407709E+03
H     0.10211864E+03    0.91734827E+02    0.10465656E+03
H     0.10215560E+03    0.93258812E+02    0.10345146E+03
H     0.10185072E+03    0.91500975E+02    0.10303112E+03
C     0.95497459E+02    0.96561695E+02    0.10483470E+03
O     0.94574464E+02    0.95931676E+02    0.10471587E+03
O     0.92157242E+02    0.10023326E+03    0.10263110E+03
H     0.91630637E+02    0.10046150E+03    0.10179359E+03
H     0.92516170E+02    0.10110016E+03    0.10301762E+03
O     0.97291582E+02    0.99015749E+02    0.98863436E+02
H     0.96923741E+02    0.98257380E+02    0.98279483E+02
H     0.98299842E+02    0.98955651E+02    0.98803938E+02
O     0.10034770E+03    0.98063708E+02    0.10121106E+03
H     0.10008755E+03    0.98848850E+02    0.10182331E+03
H     0.10024934E+03    0.98276573E+02    0.10025525E+03
O     0.96625409E+02    0.92125051E+02    0.99104158E+02
H     0.97430019E+02    0.91972753E+02    0.99749724E+02
H     0.96625227E+02    0.93134267E+02    0.98774975E+02
O     0.94936283E+02    0.95919859E+02    0.99950647E+02
H     0.94181303E+02    0.95373040E+02    0.10042087E+03
H     0.95332049E+02    0.96608115E+02    0.10061659E+03
O     0.97916680E+02    0.92942331E+02    0.10550919E+03
H     0.97910993E+02    0.92998577E+02    0.10447665E+03
H     0.97816814E+02    0.92008370E+02    0.10582868E+03
O     0.98214243E+02    0.95706529E+02    0.10279772E+03
H     0.98361438E+02    0.95831323E+02    0.10376093E+03
H     0.97625189E+02    0.96473890E+02    0.10239392E+03
O     0.98751138E+02    0.98537496E+02    0.10578181E+03
H     0.99120892E+02    0.97587373E+02    0.10572505E+03
H     0.99075303E+02    0.98802743E+02    0.10668340E+03
O     0.98300861E+02    0.89460200E+02    0.10192128E+03
H     0.98933621E+02    0.89186340E+02    0.10264285E+03
H     0.98685707E+02    0.90344254E+02    0.10152229E+03
O     0.97939029E+02    0.10232781E+03    0.10223627E+03
H     0.98557487E+02    0.10299564E+03    0.10264996E+03
H     0.98028898E+02    0.10135329E+03    0.10261035E+03
O     0.99102384E+02    0.95542337E+02    0.98785503E+02
H     0.99834627E+02    0.94878151E+02    0.99046903E+02
H     0.98175087E+02    0.95052147E+02    0.98770825E+02
O     0.94300039E+02    0.91119367E+02    0.10013926E+03
H     0.95122829E+02    0.91420862E+02    0.99659085E+02
H     0.94208731E+02    0.90111833E+02    0.10013122E+03
O     0.92965502E+02    0.91645076E+02    0.10398925E+03
H     0.93002195E+02    0.92420655E+02    0.10460910E+03
H     0.92170414E+02    0.91695831E+02    0.10335478E+03
O     0.93740614E+02    0.88479147E+02    0.10005983E+03
H     0.93425791E+02    0.87562171E+02    0.99792189E+02
H     0.94420123E+02    0.88431147E+02    0.10084472E+03
O     0.97656756E+02    0.93116156E+02    0.10283905E+03
H     0.96721106E+02    0.92765148E+02    0.10266797E+03
H     0.97726297E+02    0.94113518E+02    0.10281605E+03
O     0.94586402E+02    0.99069984E+02    0.10204712E+03
H     0.93667159E+02    0.99243095E+02    0.10241208E+03
H     0.94916593E+02    0.99929664E+02    0.10155842E+03
O     0.95191351E+02    0.91783872E+02    0.10247596E+03
H     0.94723969E+02    0.91513064E+02    0.10158577E+03
H     0.94384715E+02    0.91790702E+02    0.10314208E+03
O     0.99276153E+02    0.95803740E+02    0.10558296E+03
H     0.10018604E+03    0.95576474E+02    0.10510160E+03
H     0.98987386E+02    0.95058334E+02    0.10621330E+03
O     0.10080564E+03    0.95572431E+02    0.10184259E+03
H     0.99858691E+02    0.95446164E+02    0.10215790E+03
H     0.10099923E+03    0.96529771E+02    0.10152157E+03
O     0.96887024E+02    0.97739720E+02    0.10156920E+03
H     0.96091331E+02    0.98148156E+02    0.10203629E+03
H     0.97012036E+02    0.98374304E+02    0.10076105E+03
O     0.93421003E+02    0.94234967E+02    0.10134443E+03
H     0.94011273E+02    0.93719906E+02    0.10201318E+03
H     0.92544988E+02    0.93756333E+02    0.10109032E+03
O     0.96057648E+02    0.10095480E+03    0.10051612E+03
H     0.96690744E+02    0.10162441E+03    0.10090782E+03
H     0.96498685E+02    0.10038836E+03    0.99806808E+02
O     0.91141030E+02    0.91869956E+02    0.10183131E+03
H     0.90195622E+02    0.91520422E+02    0.10197932E+03
H     0.91354869E+02    0.91702327E+02    0.10085108E+03
O     0.99953384E+02    0.98383194E+02    0.98463877E+02
H     0.99769408E+02    0.97401703E+02    0.98642240E+02
H     0.99934907E+02    0.98651251E+02    0.97471591E+02
O     0.92014592E+02    0.92206971E+02    0.99253731E+02
H     0.91926975E+02    0.92300041E+02    0.98233626E+02
H     0.92913711E+02    0.91754201E+02    0.99540016E+02
O     0.98791670E+02    0.91964264E+02    0.10063123E+03
H     0.99653335E+02    0.92456074E+02    0.10040633E+03
H     0.98267845E+02    0.92397261E+02    0.10135408E+03
O     0.10105887E+03    0.93553868E+02    0.10023133E+03
H     0.10089682E+03    0.94357235E+02    0.10085788E+03
H     0.10202531E+03    0.93370497E+02    0.10003496E+03
O     0.95713020E+02    0.89175723E+02    0.10201824E+03
H     0.95471819E+02    0.90136254E+02    0.10228285E+03
H     0.96749069E+02    0.89100252E+02    0.10190848E+03
O     0.98565457E+02    0.99557488E+02    0.10326995E+03
H     0.98136384E+02    0.98781984E+02    0.10277667E+03
H     0.98689327E+02    0.99396514E+02    0.10428336E+03
O     0.96571191E+02    0.94651478E+02    0.98144655E+02
H     0.96273810E+02    0.94695282E+02    0.97190002E+02
H     0.95908108E+02    0.95164473E+02    0.98775671E+02
