          97
Time step:                5000 Sim. Time [au]       50000.00
C     0.10128407E+03    0.93074451E+02    0.10418348E+03
H     0.10095494E+03    0.92731732E+02    0.10521151E+03
H     0.10234262E+03    0.93195703E+02    0.10426583E+03
H     0.10070344E+03    0.94039189E+02    0.10402896E+03
H     0.10123897E+03    0.92316420E+02    0.10339187E+03
C     0.94370493E+02    0.97257429E+02    0.10397819E+03
O     0.93704583E+02    0.98145362E+02    0.10414496E+03
O     0.91440200E+02    0.99375669E+02    0.10213025E+03
H     0.90679054E+02    0.10003051E+03    0.10213293E+03
H     0.91951234E+02    0.99269444E+02    0.10300123E+03
O     0.97252101E+02    0.97798555E+02    0.98588375E+02
H     0.97481896E+02    0.96941816E+02    0.98062648E+02
H     0.97641517E+02    0.98629810E+02    0.98126666E+02
O     0.99173244E+02    0.97826130E+02    0.10041822E+03
H     0.98837482E+02    0.98663946E+02    0.10091363E+03
H     0.98592316E+02    0.97653110E+02    0.99587580E+02
O     0.97298710E+02    0.91435092E+02    0.99533611E+02
H     0.98012798E+02    0.91713868E+02    0.10020602E+03
H     0.97226312E+02    0.92163569E+02    0.98867400E+02
O     0.94988449E+02    0.95053418E+02    0.99468563E+02
H     0.94453147E+02    0.94305132E+02    0.99973884E+02
H     0.95026774E+02    0.95908895E+02    0.10008349E+03
O     0.98051696E+02    0.93936316E+02    0.10583897E+03
H     0.98075476E+02    0.93587706E+02    0.10485236E+03
H     0.98313565E+02    0.93248257E+02    0.10650832E+03
O     0.97049648E+02    0.95503621E+02    0.10264088E+03
H     0.96570096E+02    0.95709833E+02    0.10348925E+03
H     0.96567843E+02    0.96019202E+02    0.10184661E+03
O     0.98520654E+02    0.98943079E+02    0.10451739E+03
H     0.99133778E+02    0.98145904E+02    0.10467874E+03
H     0.98219451E+02    0.99132764E+02    0.10543766E+03
O     0.99123306E+02    0.89752155E+02    0.10210113E+03
H     0.99947801E+02    0.89320656E+02    0.10248699E+03
H     0.99401292E+02    0.90630929E+02    0.10159999E+03
O     0.97447838E+02    0.10183780E+03    0.10050655E+03
H     0.98334195E+02    0.10196586E+03    0.10002443E+03
H     0.97381402E+02    0.10089250E+03    0.10094053E+03
O     0.98472877E+02    0.95283283E+02    0.98123471E+02
H     0.99179767E+02    0.94900933E+02    0.98747713E+02
H     0.97606869E+02    0.94706541E+02    0.98039882E+02
O     0.95411183E+02    0.89996963E+02    0.10082913E+03
H     0.96040488E+02    0.90647830E+02    0.10032582E+03
H     0.95814360E+02    0.89042051E+02    0.10090428E+03
O     0.93103077E+02    0.94259803E+02    0.10370032E+03
H     0.93786388E+02    0.94314340E+02    0.10445245E+03
H     0.92429447E+02    0.93479761E+02    0.10392388E+03
O     0.96939634E+02    0.88010435E+02    0.10168355E+03
H     0.97650581E+02    0.88669483E+02    0.10139000E+03
H     0.97283229E+02    0.87148570E+02    0.10215749E+03
O     0.97686843E+02    0.93156783E+02    0.10343846E+03
H     0.97018296E+02    0.92431341E+02    0.10333288E+03
H     0.97254523E+02    0.94009932E+02    0.10305067E+03
O     0.94166881E+02    0.99744239E+02    0.10116635E+03
H     0.93168410E+02    0.99482730E+02    0.10125058E+03
H     0.94310517E+02    0.10069950E+03    0.10092414E+03
O     0.95804700E+02    0.91184545E+02    0.10329415E+03
H     0.95735293E+02    0.90713325E+02    0.10241549E+03
H     0.95002826E+02    0.91176772E+02    0.10390065E+03
O     0.99730508E+02    0.96237104E+02    0.10527247E+03
H     0.10000812E+03    0.96010831E+02    0.10429297E+03
H     0.99019216E+02    0.95616538E+02    0.10551394E+03
O     0.99631288E+02    0.96091997E+02    0.10245883E+03
H     0.98712023E+02    0.95741741E+02    0.10267636E+03
H     0.99455962E+02    0.96858140E+02    0.10180861E+03
O     0.95762241E+02    0.97457021E+02    0.10079378E+03
H     0.95017764E+02    0.98193630E+02    0.10082462E+03
H     0.96295585E+02    0.97530299E+02    0.99911985E+02
O     0.93294014E+02    0.93447519E+02    0.10104242E+03
H     0.93251368E+02    0.93864709E+02    0.10196657E+03
H     0.93043581E+02    0.92479388E+02    0.10112090E+03
O     0.94704023E+02    0.10229782E+03    0.10026137E+03
H     0.95736152E+02    0.10230714E+03    0.10039746E+03
H     0.94421740E+02    0.10298431E+03    0.99566376E+02
O     0.93250380E+02    0.91123386E+02    0.10443184E+03
H     0.92752607E+02    0.90521258E+02    0.10508142E+03
H     0.92982639E+02    0.91033112E+02    0.10347351E+03
O     0.99991778E+02    0.97540240E+02    0.96806399E+02
H     0.99696284E+02    0.96641228E+02    0.97102286E+02
H     0.10100554E+03    0.97554648E+02    0.97027550E+02
O     0.92970690E+02    0.90701252E+02    0.10177637E+03
H     0.92238983E+02    0.90135257E+02    0.10139553E+03
H     0.93867851E+02    0.90438845E+02    0.10136703E+03
O     0.99304501E+02    0.92225472E+02    0.10107577E+03
H     0.99860892E+02    0.92994533E+02    0.10072851E+03
H     0.98876918E+02    0.92405766E+02    0.10198472E+03
O     0.10053172E+03    0.94331733E+02    0.10021913E+03
H     0.10027513E+03    0.94908332E+02    0.10100264E+03
H     0.10152025E+03    0.94375283E+02    0.99938064E+02
O     0.97482999E+02    0.89245856E+02    0.10454723E+03
H     0.96704186E+02    0.89614623E+02    0.10403498E+03
H     0.98243158E+02    0.89467533E+02    0.10396349E+03
O     0.97595672E+02    0.99503473E+02    0.10189003E+03
H     0.96772419E+02    0.98900658E+02    0.10177253E+03
H     0.97954261E+02    0.99387530E+02    0.10283956E+03
O     0.96352907E+02    0.93610756E+02    0.97727090E+02
H     0.95932338E+02    0.93323988E+02    0.96862777E+02
H     0.95700608E+02    0.94195934E+02    0.98331283E+02
