          97
Time step:               33500 Sim. Time [au]      335000.00
C     0.90070436E+02    0.87862321E+02    0.10372355E+03
H     0.90044301E+02    0.87998272E+02    0.10483388E+03
H     0.89408320E+02    0.88411317E+02    0.10314915E+03
H     0.90159315E+02    0.86802298E+02    0.10336048E+03
H     0.91136379E+02    0.88246755E+02    0.10341061E+03
C     0.88165764E+02    0.87447787E+02    0.10107874E+03
O     0.87003478E+02    0.87328796E+02    0.10087448E+03
O     0.97864447E+02    0.90604734E+02    0.10319148E+03
H     0.98601368E+02    0.89905352E+02    0.10304299E+03
H     0.98085248E+02    0.91203933E+02    0.10399381E+03
O     0.98235635E+02    0.95652972E+02    0.10598829E+03
H     0.97754721E+02    0.96542548E+02    0.10627833E+03
H     0.99166495E+02    0.95890148E+02    0.10561899E+03
O     0.10076722E+03    0.93389474E+02    0.10355053E+03
H     0.10093069E+03    0.92383907E+02    0.10353090E+03
H     0.10159485E+03    0.93884078E+02    0.10394774E+03
O     0.97143941E+02    0.97943631E+02    0.10067962E+03
H     0.97212398E+02    0.97270197E+02    0.99891098E+02
H     0.96398611E+02    0.97502400E+02    0.10129214E+03
O     0.95209321E+02    0.97117638E+02    0.10243864E+03
H     0.95028060E+02    0.98037929E+02    0.10287525E+03
H     0.95280835E+02    0.96401231E+02    0.10318296E+03
O     0.96610237E+02    0.92205686E+02    0.98450008E+02
H     0.96257660E+02    0.93125543E+02    0.98722337E+02
H     0.96445687E+02    0.92027735E+02    0.97437651E+02
O     0.97251673E+02    0.94361749E+02    0.10202872E+03
H     0.96830054E+02    0.93551597E+02    0.10161825E+03
H     0.96708986E+02    0.94598098E+02    0.10289286E+03
O     0.99089852E+02    0.91078953E+02    0.10006401E+03
H     0.98251542E+02    0.91191219E+02    0.99505773E+02
H     0.99278737E+02    0.91878964E+02    0.10066218E+03
O     0.97138435E+02    0.98952302E+02    0.97014298E+02
H     0.98044556E+02    0.99079764E+02    0.96677571E+02
H     0.97128814E+02    0.98114039E+02    0.97607492E+02
O     0.10108432E+03    0.90801913E+02    0.10373320E+03
H     0.10109886E+03    0.90333052E+02    0.10460265E+03
H     0.10109019E+03    0.90136461E+02    0.10296041E+03
O     0.10041174E+03    0.96671092E+02    0.10451232E+03
H     0.10021313E+03    0.96369557E+02    0.10355468E+03
H     0.10064527E+03    0.97690000E+02    0.10444610E+03
O     0.95110712E+02    0.99934767E+02    0.10033103E+03
H     0.96045511E+02    0.99503830E+02    0.10025853E+03
H     0.94629598E+02    0.99561218E+02    0.99499892E+02
O     0.91745512E+02    0.10113885E+03    0.99781402E+02
H     0.92497219E+02    0.10171538E+03    0.10012784E+03
H     0.91022301E+02    0.10170199E+03    0.99329397E+02
O     0.93390018E+02    0.99099855E+02    0.98289066E+02
H     0.92846711E+02    0.99830284E+02    0.98804006E+02
H     0.93837327E+02    0.99576398E+02    0.97514883E+02
O     0.95855576E+02    0.94802366E+02    0.99504337E+02
H     0.95139186E+02    0.95508117E+02    0.99532387E+02
H     0.96176665E+02    0.94606712E+02    0.10045972E+03
O     0.95633624E+02    0.92695004E+02    0.10485365E+03
H     0.94990286E+02    0.91966188E+02    0.10449500E+03
H     0.96601907E+02    0.92526623E+02    0.10449202E+03
O     0.93902414E+02    0.96558962E+02    0.99759369E+02
H     0.93913698E+02    0.96688554E+02    0.10076870E+03
H     0.93356041E+02    0.97318453E+02    0.99340621E+02
O     0.96047675E+02    0.91975751E+02    0.10155904E+03
H     0.96745773E+02    0.91586101E+02    0.10224348E+03
H     0.95884637E+02    0.91316282E+02    0.10080395E+03
O     0.99677777E+02    0.95632375E+02    0.10186887E+03
H     0.98746301E+02    0.95201852E+02    0.10186033E+03
H     0.10030329E+03    0.94911588E+02    0.10217413E+03
O     0.95961148E+02    0.95431127E+02    0.10439235E+03
H     0.95406536E+02    0.94654973E+02    0.10467352E+03
H     0.96724008E+02    0.95539958E+02    0.10507063E+03
O     0.94200764E+02    0.99546099E+02    0.10291589E+03
H     0.94333152E+02    0.99540551E+02    0.10189079E+03
H     0.93738415E+02    0.10039127E+03    0.10317336E+03
O     0.98423463E+02    0.92591662E+02    0.10480855E+03
H     0.99366506E+02    0.92772841E+02    0.10442912E+03
H     0.98447968E+02    0.93232913E+02    0.10556959E+03
O     0.94060938E+02    0.10239741E+03    0.10089329E+03
H     0.94459539E+02    0.10316289E+03    0.10147488E+03
H     0.94742761E+02    0.10165089E+03    0.10066918E+03
O     0.10270524E+03    0.94787397E+02    0.10472002E+03
H     0.10188480E+03    0.95304958E+02    0.10505653E+03
H     0.10360869E+03    0.95217810E+02    0.10483963E+03
O     0.99550217E+02    0.98822087E+02    0.10149167E+03
H     0.98627321E+02    0.98523601E+02    0.10124844E+03
H     0.10027241E+03    0.98148497E+02    0.10122734E+03
O     0.97511544E+02    0.96558583E+02    0.98330667E+02
H     0.98437556E+02    0.96183669E+02    0.98503145E+02
H     0.96891939E+02    0.95816593E+02    0.98323150E+02
O     0.10016981E+03    0.95882832E+02    0.99014346E+02
H     0.99870158E+02    0.95654257E+02    0.99980273E+02
H     0.10116208E+03    0.95659619E+02    0.98860303E+02
O     0.94961625E+02    0.10045531E+03    0.96598917E+02
H     0.95058029E+02    0.10080413E+03    0.95665257E+02
H     0.95757910E+02    0.99837395E+02    0.96815519E+02
O     0.10012137E+03    0.89272059E+02    0.10163531E+03
H     0.10042852E+03    0.88443715E+02    0.10120736E+03
H     0.99622906E+02    0.89967637E+02    0.10101764E+03
O     0.99828781E+02    0.99411287E+02    0.10409755E+03
H     0.99761510E+02    0.99211134E+02    0.10304902E+03
H     0.99667088E+02    0.10034935E+03    0.10433141E+03
