          97
Time step:               22000 Sim. Time [au]      220000.00
C     0.90557181E+02    0.94929176E+02    0.10184637E+03
H     0.91190268E+02    0.94925645E+02    0.10271007E+03
H     0.90711688E+02    0.94183210E+02    0.10103778E+03
H     0.90547848E+02    0.95967087E+02    0.10152852E+03
H     0.89490895E+02    0.94872481E+02    0.10226338E+03
C     0.94377884E+02    0.93740064E+02    0.10515091E+03
O     0.95028497E+02    0.93345245E+02    0.10426765E+03
O     0.10048573E+03    0.92040698E+02    0.10582108E+03
H     0.10089826E+03    0.92126066E+02    0.10677402E+03
H     0.10110801E+03    0.92542175E+02    0.10524001E+03
O     0.99118754E+02    0.97798147E+02    0.10439166E+03
H     0.98855626E+02    0.98334943E+02    0.10525213E+03
H     0.99388428E+02    0.98417648E+02    0.10363613E+03
O     0.10163713E+03    0.96285479E+02    0.10285322E+03
H     0.10230049E+03    0.96230861E+02    0.10365660E+03
H     0.10109712E+03    0.97133034E+02    0.10271839E+03
O     0.96162041E+02    0.96485656E+02    0.97716447E+02
H     0.96207889E+02    0.95470754E+02    0.97889022E+02
H     0.96437089E+02    0.97014147E+02    0.98543355E+02
O     0.95308436E+02    0.96887769E+02    0.10293641E+03
H     0.94546938E+02    0.97385794E+02    0.10347875E+03
H     0.95968065E+02    0.96454157E+02    0.10353288E+03
O     0.96242419E+02    0.90454477E+02    0.10247777E+03
H     0.96136907E+02    0.91329131E+02    0.10188434E+03
H     0.95405292E+02    0.89874644E+02    0.10250593E+03
O     0.98021364E+02    0.93774327E+02    0.10244307E+03
H     0.98423227E+02    0.92947559E+02    0.10293251E+03
H     0.97736097E+02    0.94347415E+02    0.10322240E+03
O     0.10131101E+03    0.92960715E+02    0.10328226E+03
H     0.10043499E+03    0.92469013E+02    0.10297511E+03
H     0.10134913E+03    0.93927001E+02    0.10309151E+03
O     0.94181261E+02    0.94036285E+02    0.96220397E+02
H     0.94546365E+02    0.94136935E+02    0.95265871E+02
H     0.94959231E+02    0.93942692E+02    0.96886429E+02
O     0.10361264E+03    0.95841858E+02    0.10519168E+03
H     0.10452808E+03    0.96207945E+02    0.10557825E+03
H     0.10372963E+03    0.94863873E+02    0.10498251E+03
O     0.98461041E+02    0.97823213E+02    0.10037709E+03
H     0.98844056E+02    0.97077919E+02    0.99843659E+02
H     0.97427415E+02    0.97813214E+02    0.10040645E+03
O     0.93338080E+02    0.96610534E+02    0.97898839E+02
H     0.94259249E+02    0.96443095E+02    0.97482814E+02
H     0.92856294E+02    0.95807817E+02    0.98293740E+02
O     0.89797602E+02    0.95448959E+02    0.98295884E+02
H     0.90301885E+02    0.96223094E+02    0.97786729E+02
H     0.88806552E+02    0.95562210E+02    0.98170527E+02
O     0.92246986E+02    0.94680049E+02    0.99245140E+02
H     0.91276735E+02    0.95003810E+02    0.99250478E+02
H     0.92275364E+02    0.93791368E+02    0.98729697E+02
O     0.95855404E+02    0.92861030E+02    0.10105117E+03
H     0.94918685E+02    0.93295190E+02    0.10116810E+03
H     0.96603677E+02    0.93285438E+02    0.10155322E+03
O     0.98418819E+02    0.94275803E+02    0.10657403E+03
H     0.98748578E+02    0.93315079E+02    0.10657560E+03
H     0.99198137E+02    0.94962549E+02    0.10649151E+03
O     0.93674910E+02    0.94756901E+02    0.10161884E+03
H     0.93976966E+02    0.95650625E+02    0.10197525E+03
H     0.93230654E+02    0.94715222E+02    0.10067576E+03
O     0.98877000E+02    0.91421551E+02    0.10353871E+03
H     0.99284255E+02    0.91094765E+02    0.10439567E+03
H     0.98031063E+02    0.90952743E+02    0.10323918E+03
O     0.10010684E+03    0.94783928E+02    0.10076914E+03
H     0.99346420E+02    0.94542818E+02    0.10144642E+03
H     0.10089576E+03    0.95253157E+02    0.10115093E+03
O     0.97322775E+02    0.95622582E+02    0.10435335E+03
H     0.97440643E+02    0.95263027E+02    0.10528420E+03
H     0.97866919E+02    0.96473644E+02    0.10424029E+03
O     0.92971704E+02    0.97959970E+02    0.10381905E+03
H     0.92799127E+02    0.97989040E+02    0.10283807E+03
H     0.92269825E+02    0.98525482E+02    0.10431022E+03
O     0.10049759E+03    0.96028466E+02    0.10617925E+03
H     0.10152679E+03    0.95967293E+02    0.10603955E+03
H     0.10003426E+03    0.96698227E+02    0.10558778E+03
O     0.90960875E+02    0.97704671E+02    0.97212156E+02
H     0.90674007E+02    0.98677102E+02    0.97116756E+02
H     0.91946277E+02    0.97612270E+02    0.97339048E+02
O     0.10028189E+03    0.98708754E+02    0.10220098E+03
H     0.99511977E+02    0.98461902E+02    0.10159477E+03
H     0.10090294E+03    0.99248096E+02    0.10162600E+03
O     0.93592848E+02    0.98918642E+02    0.99307977E+02
H     0.93502809E+02    0.97936146E+02    0.99022001E+02
H     0.94041569E+02    0.99433134E+02    0.98559191E+02
O     0.96339937E+02    0.93806867E+02    0.98305310E+02
H     0.97274365E+02    0.94169312E+02    0.98263063E+02
H     0.96180964E+02    0.93256020E+02    0.99142752E+02
O     0.98752490E+02    0.94994130E+02    0.98459165E+02
H     0.99265395E+02    0.94832081E+02    0.99378617E+02
H     0.99335097E+02    0.94920016E+02    0.97621692E+02
O     0.91780899E+02    0.92720268E+02    0.97223260E+02
H     0.90939660E+02    0.92664622E+02    0.96668476E+02
H     0.92450254E+02    0.93361826E+02    0.96863259E+02
O     0.10381409E+03    0.93146516E+02    0.10431368E+03
H     0.10420720E+03    0.92263743E+02    0.10429805E+03
H     0.10290913E+03    0.93113632E+02    0.10380162E+03
O     0.95964271E+02    0.97658738E+02    0.10031786E+03
H     0.95249280E+02    0.98246592E+02    0.99920119E+02
H     0.95676092E+02    0.97251823E+02    0.10118536E+03
