          97
Time step:               13500 Sim. Time [au]      135000.00
C     0.10014894E+03    0.93933297E+02    0.10862510E+03
H     0.10061325E+03    0.93130563E+02    0.10804013E+03
H     0.10099639E+03    0.94532293E+02    0.10911170E+03
H     0.99423543E+02    0.93530403E+02    0.10931315E+03
H     0.99705492E+02    0.94654781E+02    0.10789116E+03
C     0.94007747E+02    0.94171325E+02    0.10605094E+03
O     0.94620794E+02    0.93185385E+02    0.10622692E+03
O     0.95688889E+02    0.10017571E+03    0.10722112E+03
H     0.95688628E+02    0.99735214E+02    0.10813829E+03
H     0.94831509E+02    0.10059238E+03    0.10681945E+03
O     0.98315618E+02    0.99425264E+02    0.10102260E+03
H     0.97366951E+02    0.99301317E+02    0.10078354E+03
H     0.98965210E+02    0.99113590E+02    0.10028514E+03
O     0.10147751E+03    0.96752135E+02    0.10122558E+03
H     0.10235075E+03    0.97257717E+02    0.10133708E+03
H     0.10099262E+03    0.96987426E+02    0.10033752E+03
O     0.95414298E+02    0.93638477E+02    0.98490399E+02
H     0.96241627E+02    0.93041758E+02    0.98462395E+02
H     0.95575893E+02    0.94674513E+02    0.98649086E+02
O     0.95081017E+02    0.96764631E+02    0.10119787E+03
H     0.94281866E+02    0.96198511E+02    0.10151827E+03
H     0.95636143E+02    0.97240653E+02    0.10192947E+03
O     0.97315901E+02    0.92104439E+02    0.10474506E+03
H     0.97262018E+02    0.92387435E+02    0.10375671E+03
H     0.96729606E+02    0.91259264E+02    0.10492314E+03
O     0.97773186E+02    0.95211397E+02    0.10330636E+03
H     0.97862908E+02    0.95010615E+02    0.10431467E+03
H     0.97594146E+02    0.96168380E+02    0.10304554E+03
O     0.99131095E+02    0.96837018E+02    0.10548236E+03
H     0.98695194E+02    0.95924081E+02    0.10566276E+03
H     0.98504544E+02    0.97648792E+02    0.10553053E+03
O     0.97145488E+02    0.89733202E+02    0.98931609E+02
H     0.97779793E+02    0.89144392E+02    0.98394220E+02
H     0.97287864E+02    0.90707971E+02    0.98751624E+02
O     0.10133622E+03    0.10040268E+03    0.10412087E+03
H     0.10218216E+03    0.10093054E+03    0.10409384E+03
H     0.10140434E+03    0.99395388E+02    0.10405195E+03
O     0.99270131E+02    0.95883067E+02    0.98666058E+02
H     0.99474772E+02    0.94901376E+02    0.98444683E+02
H     0.98371767E+02    0.95998062E+02    0.99114712E+02
O     0.93391074E+02    0.93112398E+02    0.96785478E+02
H     0.94236375E+02    0.93281337E+02    0.97287725E+02
H     0.93183903E+02    0.92137088E+02    0.96727292E+02
O     0.91667225E+02    0.92286351E+02    0.99154363E+02
H     0.92328500E+02    0.92721778E+02    0.98518965E+02
H     0.90885096E+02    0.92883761E+02    0.99303547E+02
O     0.92805834E+02    0.90187221E+02    0.97856600E+02
H     0.92239898E+02    0.90754721E+02    0.98508209E+02
H     0.93353387E+02    0.89507021E+02    0.98403550E+02
O     0.96571586E+02    0.93203199E+02    0.10167210E+03
H     0.95567139E+02    0.92912305E+02    0.10156452E+03
H     0.96721824E+02    0.93926355E+02    0.10236082E+03
O     0.97282682E+02    0.99060912E+02    0.10531170E+03
H     0.96844430E+02    0.99521742E+02    0.10611337E+03
H     0.97927024E+02    0.99652775E+02    0.10477168E+03
O     0.94063154E+02    0.92279256E+02    0.10058264E+03
H     0.94729376E+02    0.92518043E+02    0.99872834E+02
H     0.93144795E+02    0.92098700E+02    0.10011281E+03
O     0.97720665E+02    0.94311575E+02    0.10604099E+03
H     0.97376682E+02    0.94460330E+02    0.10703237E+03
H     0.97469121E+02    0.93387134E+02    0.10578204E+03
O     0.10016281E+03    0.94291794E+02    0.10110138E+03
H     0.99548413E+02    0.94092796E+02    0.10184922E+03
H     0.10086825E+03    0.95030642E+02    0.10132924E+03
O     0.96782981E+02    0.97903882E+02    0.10296800E+03
H     0.96743248E+02    0.98267152E+02    0.10391356E+03
H     0.97553088E+02    0.98335499E+02    0.10247348E+03
O     0.92747901E+02    0.94754475E+02    0.10130433E+03
H     0.93234578E+02    0.93882616E+02    0.10124944E+03
H     0.91956810E+02    0.94734145E+02    0.10066946E+03
O     0.98768238E+02    0.10039232E+03    0.10367237E+03
H     0.99710083E+02    0.10047899E+03    0.10396725E+03
H     0.98707271E+02    0.10003529E+03    0.10270392E+03
O     0.90196851E+02    0.94577377E+02    0.99672680E+02
H     0.89324424E+02    0.95047770E+02    0.99784183E+02
H     0.90691400E+02    0.94852455E+02    0.98820618E+02
O     0.99820131E+02    0.98577048E+02    0.99062770E+02
H     0.99802049E+02    0.97582880E+02    0.98730443E+02
H     0.10044335E+03    0.99158878E+02    0.98592624E+02
O     0.91793682E+02    0.95089701E+02    0.97701020E+02
H     0.91738107E+02    0.95908972E+02    0.97093323E+02
H     0.92455602E+02    0.94418122E+02    0.97225680E+02
O     0.97681556E+02    0.92439472E+02    0.99394473E+02
H     0.98632309E+02    0.92651932E+02    0.99134867E+02
H     0.97552005E+02    0.92644513E+02    0.10038232E+03
O     0.10029774E+03    0.93304544E+02    0.98508400E+02
H     0.10041102E+03    0.93630181E+02    0.99505312E+02
H     0.10111691E+03    0.92814634E+02    0.98223461E+02
O     0.94580813E+02    0.88430988E+02    0.99287012E+02
H     0.94734503E+02    0.87644361E+02    0.99946491E+02
H     0.95349719E+02    0.89105468E+02    0.99309023E+02
O     0.10128451E+03    0.97642079E+02    0.10395791E+03
H     0.10107274E+03    0.97251543E+02    0.10308992E+03
H     0.10057456E+03    0.97306400E+02    0.10465797E+03
O     0.96451306E+02    0.96149457E+02    0.99104157E+02
H     0.95913784E+02    0.96686560E+02    0.98474274E+02
H     0.96021074E+02    0.96151578E+02    0.10001216E+03
