          97
Time step:                5500 Sim. Time [au]       55000.00
C     0.10110248E+03    0.92936056E+02    0.10391958E+03
H     0.10194892E+03    0.92360308E+02    0.10422262E+03
H     0.10059249E+03    0.92361584E+02    0.10309634E+03
H     0.10124470E+03    0.94039083E+02    0.10371673E+03
H     0.10039972E+03    0.92886745E+02    0.10487536E+03
C     0.94759401E+02    0.97706531E+02    0.10467853E+03
O     0.93665038E+02    0.97846766E+02    0.10443234E+03
O     0.91648290E+02    0.99450704E+02    0.10193918E+03
H     0.91141387E+02    0.98608219E+02    0.10219515E+03
H     0.91227091E+02    0.10037668E+03    0.10200728E+03
O     0.96951653E+02    0.97768226E+02    0.98638800E+02
H     0.97768294E+02    0.97350235E+02    0.98264019E+02
H     0.96539813E+02    0.98299921E+02    0.97867489E+02
O     0.99453921E+02    0.98071875E+02    0.10036551E+03
H     0.99083595E+02    0.98646526E+02    0.10110928E+03
H     0.98679737E+02    0.97747244E+02    0.99818828E+02
O     0.96667351E+02    0.91607415E+02    0.99195761E+02
H     0.97623965E+02    0.91568026E+02    0.99554651E+02
H     0.96506062E+02    0.92420373E+02    0.98562887E+02
O     0.94807634E+02    0.95449416E+02    0.99524798E+02
H     0.94187256E+02    0.94739922E+02    0.99860274E+02
H     0.95026672E+02    0.96173880E+02    0.10017732E+03
O     0.97760203E+02    0.94140605E+02    0.10572198E+03
H     0.97779907E+02    0.93735010E+02    0.10475939E+03
H     0.97686495E+02    0.93424736E+02    0.10640382E+03
O     0.97038427E+02    0.95786571E+02    0.10295660E+03
H     0.97149906E+02    0.96233555E+02    0.10383355E+03
H     0.96357674E+02    0.96244645E+02    0.10232739E+03
O     0.98422105E+02    0.98613972E+02    0.10474378E+03
H     0.99010922E+02    0.97803239E+02    0.10507204E+03
H     0.98251644E+02    0.99161411E+02    0.10557086E+03
O     0.99652601E+02    0.89280731E+02    0.10220461E+03
H     0.10052337E+03    0.88817637E+02    0.10214306E+03
H     0.99575133E+02    0.90095879E+02    0.10158404E+03
O     0.97765756E+02    0.10155871E+03    0.10078757E+03
H     0.98743053E+02    0.10192208E+03    0.10077027E+03
H     0.97606293E+02    0.10077594E+03    0.10138175E+03
O     0.98662059E+02    0.95421519E+02    0.98496753E+02
H     0.99331929E+02    0.94858305E+02    0.98933543E+02
H     0.97836951E+02    0.94812278E+02    0.98274305E+02
O     0.95214485E+02    0.89901104E+02    0.10066354E+03
H     0.95698462E+02    0.90579006E+02    0.10011661E+03
H     0.95674641E+02    0.89004811E+02    0.10064514E+03
O     0.92873324E+02    0.94245150E+02    0.10369524E+03
H     0.93461278E+02    0.94692472E+02    0.10434029E+03
H     0.92990780E+02    0.93241075E+02    0.10372239E+03
O     0.96642315E+02    0.87758411E+02    0.10146031E+03
H     0.97512580E+02    0.88024400E+02    0.10111751E+03
H     0.96582322E+02    0.87491979E+02    0.10245351E+03
O     0.97658221E+02    0.93065684E+02    0.10306944E+03
H     0.96900986E+02    0.92357585E+02    0.10297425E+03
H     0.97441391E+02    0.93980598E+02    0.10269035E+03
O     0.94170233E+02    0.99959698E+02    0.10147428E+03
H     0.93208780E+02    0.99690716E+02    0.10170801E+03
H     0.94269297E+02    0.10090746E+03    0.10105157E+03
O     0.95690224E+02    0.91369658E+02    0.10300419E+03
H     0.95498181E+02    0.90654138E+02    0.10229245E+03
H     0.94767336E+02    0.91609196E+02    0.10340205E+03
O     0.99455807E+02    0.95939497E+02    0.10509664E+03
H     0.99834140E+02    0.95584823E+02    0.10422189E+03
H     0.98724606E+02    0.95281174E+02    0.10546767E+03
O     0.99702553E+02    0.95688461E+02    0.10226065E+03
H     0.98741477E+02    0.95613125E+02    0.10256310E+03
H     0.99836171E+02    0.96580114E+02    0.10172278E+03
O     0.95821964E+02    0.97636534E+02    0.10105008E+03
H     0.95209622E+02    0.98424176E+02    0.10110967E+03
H     0.96180437E+02    0.97543740E+02    0.10007886E+03
O     0.93570974E+02    0.93605945E+02    0.10126967E+03
H     0.93492328E+02    0.94025572E+02    0.10221568E+03
H     0.93376389E+02    0.92612152E+02    0.10133073E+03
O     0.94906405E+02    0.10202163E+03    0.10004099E+03
H     0.95908984E+02    0.10192178E+03    0.99966740E+02
H     0.94674380E+02    0.10298958E+03    0.10035422E+03
O     0.93218427E+02    0.91708557E+02    0.10386734E+03
H     0.92597169E+02    0.91320330E+02    0.10460190E+03
H     0.92934021E+02    0.91317023E+02    0.10296272E+03
O     0.99665376E+02    0.97656438E+02    0.97489478E+02
H     0.99462578E+02    0.96717961E+02    0.97712671E+02
H     0.10024539E+03    0.98109135E+02    0.98251903E+02
O     0.92816169E+02    0.90851975E+02    0.10130359E+03
H     0.92088965E+02    0.90353430E+02    0.10078021E+03
H     0.93769861E+02    0.90537426E+02    0.10105298E+03
O     0.99306784E+02    0.91869310E+02    0.10068001E+03
H     0.99987732E+02    0.92557289E+02    0.10037798E+03
H     0.98869627E+02    0.92181076E+02    0.10152864E+03
O     0.10114429E+03    0.94183511E+02    0.10046362E+03
H     0.10055591E+03    0.94681457E+02    0.10110269E+03
H     0.10213926E+03    0.94019454E+02    0.10070989E+03
O     0.97385564E+02    0.89301871E+02    0.10406847E+03
H     0.97056687E+02    0.90286668E+02    0.10390365E+03
H     0.98315127E+02    0.89126115E+02    0.10362279E+03
O     0.97940133E+02    0.99099238E+02    0.10219530E+03
H     0.97213182E+02    0.98409910E+02    0.10202052E+03
H     0.98191464E+02    0.99095330E+02    0.10320285E+03
O     0.96455284E+02    0.94096386E+02    0.97857235E+02
H     0.95996950E+02    0.94023347E+02    0.96963566E+02
H     0.95823798E+02    0.94643420E+02    0.98456696E+02
