          97
Time step:               23500 Sim. Time [au]      235000.00
C     0.89806974E+02    0.94727829E+02    0.10510615E+03
H     0.89811672E+02    0.95768196E+02    0.10498062E+03
H     0.88881864E+02    0.94283651E+02    0.10531655E+03
H     0.90505418E+02    0.94446571E+02    0.10598493E+03
H     0.89980237E+02    0.94211158E+02    0.10408827E+03
C     0.94083825E+02    0.92468606E+02    0.10388954E+03
O     0.95053024E+02    0.93142848E+02    0.10402784E+03
O     0.10001945E+03    0.91092740E+02    0.10590809E+03
H     0.99647216E+02    0.91622529E+02    0.10664909E+03
H     0.10096709E+03    0.91240101E+02    0.10545791E+03
O     0.99201748E+02    0.98052887E+02    0.10458051E+03
H     0.98561614E+02    0.98706516E+02    0.10489631E+03
H     0.99646212E+02    0.98306213E+02    0.10370874E+03
O     0.10143312E+03    0.95729887E+02    0.10309110E+03
H     0.10189486E+03    0.95373844E+02    0.10389924E+03
H     0.10077262E+03    0.96432427E+02    0.10334972E+03
O     0.95634857E+02    0.96975010E+02    0.98477556E+02
H     0.96159150E+02    0.96081132E+02    0.98303591E+02
H     0.95860593E+02    0.97374443E+02    0.99381486E+02
O     0.95097233E+02    0.96452941E+02    0.10312850E+03
H     0.94411713E+02    0.96336197E+02    0.10383932E+03
H     0.96040534E+02    0.96294646E+02    0.10352119E+03
O     0.96985108E+02    0.90646379E+02    0.10172436E+03
H     0.96820302E+02    0.91352327E+02    0.10105227E+03
H     0.96181981E+02    0.90032681E+02    0.10169423E+03
O     0.97968053E+02    0.94178897E+02    0.10231914E+03
H     0.98113089E+02    0.93336225E+02    0.10286467E+03
H     0.97716436E+02    0.94959090E+02    0.10295326E+03
O     0.10099775E+03    0.92006349E+02    0.10214149E+03
H     0.10013313E+03    0.91684358E+02    0.10249998E+03
H     0.10095116E+03    0.92672516E+02    0.10135033E+03
O     0.94532575E+02    0.94549930E+02    0.96756367E+02
H     0.94152378E+02    0.95399175E+02    0.97108470E+02
H     0.95472867E+02    0.94367472E+02    0.97012770E+02
O     0.10303679E+03    0.94589924E+02    0.10527938E+03
H     0.10386109E+03    0.94593772E+02    0.10578692E+03
H     0.10266262E+03    0.93641126E+02    0.10509020E+03
O     0.98567598E+02    0.97605248E+02    0.10022389E+03
H     0.98836139E+02    0.96912802E+02    0.99528823E+02
H     0.97566800E+02    0.97682078E+02    0.10033642E+03
O     0.93076062E+02    0.98303080E+02    0.97872924E+02
H     0.93908411E+02    0.97769897E+02    0.98018936E+02
H     0.92245892E+02    0.97851114E+02    0.98264485E+02
O     0.90392792E+02    0.97369904E+02    0.97222763E+02
H     0.90919642E+02    0.97747875E+02    0.96459643E+02
H     0.89527104E+02    0.97870725E+02    0.97386920E+02
O     0.92012218E+02    0.95583574E+02    0.98935956E+02
H     0.91662184E+02    0.96193069E+02    0.98184096E+02
H     0.91926536E+02    0.94619703E+02    0.98621611E+02
O     0.96297558E+02    0.93146652E+02    0.10060140E+03
H     0.95460732E+02    0.93696404E+02    0.10049830E+03
H     0.96860490E+02    0.93558706E+02    0.10135730E+03
O     0.98175383E+02    0.93629534E+02    0.10572109E+03
H     0.98127558E+02    0.92958878E+02    0.10492593E+03
H     0.99088254E+02    0.93982005E+02    0.10596093E+03
O     0.93842834E+02    0.94850044E+02    0.10093594E+03
H     0.94105918E+02    0.95389121E+02    0.10181573E+03
H     0.93105388E+02    0.95212863E+02    0.10035003E+03
O     0.98586200E+02    0.91745076E+02    0.10343984E+03
H     0.99035188E+02    0.91288666E+02    0.10424751E+03
H     0.97892081E+02    0.91191639E+02    0.10289320E+03
O     0.10023861E+03    0.94612040E+02    0.10087732E+03
H     0.99391585E+02    0.94465764E+02    0.10143012E+03
H     0.10094884E+03    0.95213820E+02    0.10140812E+03
O     0.97439837E+02    0.96146141E+02    0.10450218E+03
H     0.97639531E+02    0.95391060E+02    0.10514846E+03
H     0.98147772E+02    0.96883616E+02    0.10452722E+03
O     0.93208401E+02    0.96015055E+02    0.10517993E+03
H     0.92212385E+02    0.96238863E+02    0.10524915E+03
H     0.93719270E+02    0.96409337E+02    0.10594990E+03
O     0.10056015E+03    0.95353087E+02    0.10630635E+03
H     0.10151881E+03    0.95064638E+02    0.10603402E+03
H     0.10036980E+03    0.96377154E+02    0.10634600E+03
O     0.91934209E+02    0.98353201E+02    0.95207690E+02
H     0.92241812E+02    0.98322917E+02    0.94257323E+02
H     0.92706771E+02    0.98630783E+02    0.95850405E+02
O     0.10025720E+03    0.98468476E+02    0.10219900E+03
H     0.99482065E+02    0.98334323E+02    0.10156536E+03
H     0.10111374E+03    0.98140483E+02    0.10177949E+03
O     0.93974470E+02    0.99653728E+02    0.10009933E+03
H     0.93200566E+02    0.10009944E+03    0.10052945E+03
H     0.93886268E+02    0.99425855E+02    0.99097908E+02
O     0.96791009E+02    0.94411896E+02    0.98190584E+02
H     0.97695589E+02    0.94925579E+02    0.98286857E+02
H     0.96567763E+02    0.93915152E+02    0.99044052E+02
O     0.99330884E+02    0.95553434E+02    0.98383374E+02
H     0.99794423E+02    0.95004933E+02    0.99095606E+02
H     0.10001253E+03    0.95723847E+02    0.97653866E+02
O     0.92058329E+02    0.93318626E+02    0.97342955E+02
H     0.91487087E+02    0.93335909E+02    0.96511444E+02
H     0.93030375E+02    0.93615620E+02    0.97128614E+02
O     0.10227239E+03    0.91959909E+02    0.10462075E+03
H     0.10309145E+03    0.91337053E+02    0.10466616E+03
H     0.10181981E+03    0.91923769E+02    0.10375053E+03
O     0.95920062E+02    0.97875870E+02    0.10089839E+03
H     0.95291867E+02    0.98645330E+02    0.10062062E+03
H     0.95748578E+02    0.97472456E+02    0.10180935E+03
