          97
Time step:               32500 Sim. Time [au]      325000.00
C     0.89254273E+02    0.90253687E+02    0.10343566E+03
H     0.89153909E+02    0.91138602E+02    0.10283214E+03
H     0.89045014E+02    0.90384800E+02    0.10447393E+03
H     0.90273643E+02    0.89771523E+02    0.10343993E+03
H     0.88561959E+02    0.89442569E+02    0.10308903E+03
C     0.88751244E+02    0.87089137E+02    0.10214690E+03
O     0.88622888E+02    0.86658288E+02    0.10109758E+03
O     0.97843514E+02    0.89287622E+02    0.10354471E+03
H     0.98658232E+02    0.89185222E+02    0.10290448E+03
H     0.98081824E+02    0.89421644E+02    0.10446565E+03
O     0.98618668E+02    0.95527143E+02    0.10614486E+03
H     0.98330435E+02    0.95406945E+02    0.10710709E+03
H     0.99621313E+02    0.95828215E+02    0.10610933E+03
O     0.10153501E+03    0.93282184E+02    0.10292662E+03
H     0.10149986E+03    0.92287980E+02    0.10324947E+03
H     0.10145902E+03    0.93896735E+02    0.10371494E+03
O     0.97038113E+02    0.97978314E+02    0.10081447E+03
H     0.97277257E+02    0.97580021E+02    0.99909739E+02
H     0.96579622E+02    0.97352739E+02    0.10150085E+03
O     0.95287462E+02    0.97048703E+02    0.10269580E+03
H     0.94957567E+02    0.97927921E+02    0.10302834E+03
H     0.95813950E+02    0.96515198E+02    0.10338476E+03
O     0.96779674E+02    0.91892198E+02    0.98979739E+02
H     0.96430081E+02    0.92862497E+02    0.99110002E+02
H     0.96120796E+02    0.91347164E+02    0.98443225E+02
O     0.96958212E+02    0.94162882E+02    0.10197780E+03
H     0.96833751E+02    0.93183463E+02    0.10227219E+03
H     0.96722397E+02    0.94751470E+02    0.10276106E+03
O     0.99453140E+02    0.91873401E+02    0.10028584E+03
H     0.98661246E+02    0.91913590E+02    0.99648357E+02
H     0.99597963E+02    0.92823641E+02    0.10066638E+03
O     0.96455674E+02    0.98807477E+02    0.96687629E+02
H     0.97173162E+02    0.99437073E+02    0.97047252E+02
H     0.96589507E+02    0.97894431E+02    0.97094234E+02
O     0.10115597E+03    0.90808875E+02    0.10386671E+03
H     0.10171927E+03    0.90269970E+02    0.10450597E+03
H     0.10076263E+03    0.90261180E+02    0.10309342E+03
O     0.99919914E+02    0.97231933E+02    0.10357806E+03
H     0.99468048E+02    0.97097464E+02    0.10266714E+03
H     0.99705107E+02    0.98090492E+02    0.10408279E+03
O     0.95372606E+02    0.10002466E+03    0.10000931E+03
H     0.96085790E+02    0.99373675E+02    0.10027806E+03
H     0.94593162E+02    0.99643009E+02    0.99519956E+02
O     0.91959858E+02    0.10134977E+03    0.99046890E+02
H     0.92768615E+02    0.10178922E+03    0.99475282E+02
H     0.91400148E+02    0.10196542E+03    0.98499489E+02
O     0.93155254E+02    0.98922591E+02    0.98769339E+02
H     0.92671311E+02    0.99757225E+02    0.99025050E+02
H     0.93383312E+02    0.98828803E+02    0.97768132E+02
O     0.96036436E+02    0.94522588E+02    0.99437763E+02
H     0.95415676E+02    0.95345805E+02    0.99607950E+02
H     0.96329867E+02    0.94235469E+02    0.10036652E+03
O     0.95813581E+02    0.92884354E+02    0.10534736E+03
H     0.95453423E+02    0.92196817E+02    0.10470818E+03
H     0.96853578E+02    0.92766715E+02    0.10542144E+03
O     0.94484216E+02    0.96597156E+02    0.99987740E+02
H     0.94454497E+02    0.96566276E+02    0.10102087E+03
H     0.93757392E+02    0.97133973E+02    0.99534765E+02
O     0.96688607E+02    0.91480628E+02    0.10233010E+03
H     0.97177381E+02    0.90718750E+02    0.10277104E+03
H     0.96270895E+02    0.91245166E+02    0.10144269E+03
O     0.99581228E+02    0.94332236E+02    0.10120467E+03
H     0.98633332E+02    0.94383257E+02    0.10152388E+03
H     0.10024643E+03    0.93976866E+02    0.10185973E+03
O     0.96513281E+02    0.95495895E+02    0.10440417E+03
H     0.95851319E+02    0.94762646E+02    0.10469799E+03
H     0.97365109E+02    0.95441641E+02    0.10491824E+03
O     0.94066660E+02    0.99729461E+02    0.10283138E+03
H     0.94369398E+02    0.99984048E+02    0.10190282E+03
H     0.93223877E+02    0.10019203E+03    0.10310096E+03
O     0.98853375E+02    0.92280391E+02    0.10523762E+03
H     0.99567077E+02    0.91904072E+02    0.10466247E+03
H     0.98894397E+02    0.93230746E+02    0.10556253E+03
O     0.94188466E+02    0.10248720E+03    0.10001266E+03
H     0.94789976E+02    0.10325217E+03    0.99937591E+02
H     0.94747433E+02    0.10159174E+03    0.10016573E+03
O     0.10147073E+03    0.95538671E+02    0.10492374E+03
H     0.10087344E+03    0.96101274E+02    0.10434853E+03
H     0.10243354E+03    0.95895302E+02    0.10488613E+03
O     0.98785876E+02    0.10016092E+03    0.10166429E+03
H     0.98184289E+02    0.99378613E+02    0.10136532E+03
H     0.99604896E+02    0.10025685E+03    0.10111474E+03
O     0.97544214E+02    0.96701715E+02    0.98210796E+02
H     0.98531175E+02    0.96653279E+02    0.98376116E+02
H     0.97081911E+02    0.95832604E+02    0.98486672E+02
O     0.10024718E+03    0.95945003E+02    0.99034454E+02
H     0.99996036E+02    0.95394940E+02    0.99862440E+02
H     0.10064368E+03    0.95379021E+02    0.98250093E+02
O     0.93869125E+02    0.98826670E+02    0.96024563E+02
H     0.93659959E+02    0.98624205E+02    0.95048151E+02
H     0.94867314E+02    0.99009365E+02    0.96137552E+02
O     0.10014001E+03    0.89511033E+02    0.10161111E+03
H     0.10075206E+03    0.88859471E+02    0.10106152E+03
H     0.99877739E+02    0.90271789E+02    0.10098598E+03
O     0.98922271E+02    0.99557960E+02    0.10434559E+03
H     0.98694804E+02    0.99987639E+02    0.10344245E+03
H     0.98492579E+02    0.10003881E+03    0.10515642E+03
