          97
Time step:               44000 Sim. Time [au]      440000.00
C     0.83350090E+02    0.82963099E+02    0.98325135E+02
H     0.83996687E+02    0.83642973E+02    0.97770808E+02
H     0.83214185E+02    0.82101224E+02    0.97572028E+02
H     0.82261214E+02    0.83174911E+02    0.98041095E+02
H     0.82939895E+02    0.83215411E+02    0.99450365E+02
C     0.84429968E+02    0.82202359E+02    0.99108083E+02
O     0.85256706E+02    0.82044141E+02    0.99905632E+02
O     0.97177594E+02    0.90838599E+02    0.10138676E+03
H     0.96707387E+02    0.90638597E+02    0.10052639E+03
H     0.98040545E+02    0.91314098E+02    0.10117747E+03
O     0.96667745E+02    0.92702011E+02    0.10588185E+03
H     0.96408399E+02    0.92577608E+02    0.10685461E+03
H     0.97665122E+02    0.92871563E+02    0.10583225E+03
O     0.99570178E+02    0.93477195E+02    0.10067022E+03
H     0.99164666E+02    0.93103159E+02    0.99819880E+02
H     0.99955522E+02    0.92768290E+02    0.10131011E+03
O     0.99341309E+02    0.99249530E+02    0.10155874E+03
H     0.99803414E+02    0.98953472E+02    0.10068889E+03
H     0.98332077E+02    0.99217116E+02    0.10145738E+03
O     0.95462711E+02    0.97826890E+02    0.10297755E+03
H     0.95826302E+02    0.98558803E+02    0.10358264E+03
H     0.95359233E+02    0.96959537E+02    0.10355253E+03
O     0.98264316E+02    0.95007459E+02    0.97420437E+02
H     0.97947503E+02    0.95696584E+02    0.98102702E+02
H     0.99226067E+02    0.95157958E+02    0.97220802E+02
O     0.95673377E+02    0.95536537E+02    0.10154254E+03
H     0.94924051E+02    0.94830326E+02    0.10157872E+03
H     0.95449819E+02    0.96435657E+02    0.10198702E+03
O     0.94966627E+02    0.92991345E+02    0.99137557E+02
H     0.95566637E+02    0.93735561E+02    0.98784571E+02
H     0.94441471E+02    0.93282544E+02    0.99970317E+02
O     0.99582720E+02    0.10020126E+03    0.98254795E+02
H     0.10040771E+03    0.10034756E+03    0.97701675E+02
H     0.99439847E+02    0.99215791E+02    0.98463257E+02
O     0.98359541E+02    0.92280823E+02    0.98504078E+02
H     0.98302507E+02    0.93048568E+02    0.97860022E+02
H     0.97564722E+02    0.91612393E+02    0.98358238E+02
O     0.99194492E+02    0.93999939E+02    0.10497207E+03
H     0.98848314E+02    0.94214494E+02    0.10403419E+03
H     0.99099703E+02    0.94833175E+02    0.10558375E+03
O     0.98105863E+02    0.10149950E+03    0.10299662E+03
H     0.98614116E+02    0.10075143E+03    0.10259024E+03
H     0.97574355E+02    0.10198686E+03    0.10228178E+03
O     0.96707849E+02    0.10452844E+03    0.10223604E+03
H     0.96748223E+02    0.10437337E+03    0.10325974E+03
H     0.96339206E+02    0.10544295E+03    0.10199325E+03
O     0.96936508E+02    0.10232913E+03    0.10069553E+03
H     0.96633634E+02    0.10320381E+03    0.10108034E+03
H     0.97187776E+02    0.10249585E+03    0.99714868E+02
O     0.97218320E+02    0.96726088E+02    0.99538584E+02
H     0.96980746E+02    0.97686282E+02    0.99792978E+02
H     0.96863078E+02    0.96096237E+02    0.10023645E+03
O     0.95756772E+02    0.92690009E+02    0.10301800E+03
H     0.96066853E+02    0.92773336E+02    0.10396996E+03
H     0.96279369E+02    0.91981499E+02    0.10247013E+03
O     0.96611167E+02    0.99170596E+02    0.10072796E+03
H     0.95999763E+02    0.98917726E+02    0.10148829E+03
H     0.96701431E+02    0.10014360E+03    0.10058352E+03
O     0.93605684E+02    0.93762577E+02    0.10154958E+03
H     0.94284291E+02    0.93356005E+02    0.10223180E+03
H     0.92820421E+02    0.94102050E+02    0.10203233E+03
O     0.98324572E+02    0.94883864E+02    0.10255845E+03
H     0.97378827E+02    0.95234587E+02    0.10233722E+03
H     0.98747178E+02    0.94399954E+02    0.10179385E+03
O     0.95852957E+02    0.95678549E+02    0.10450731E+03
H     0.96633881E+02    0.95872081E+02    0.10515025E+03
H     0.95734847E+02    0.94677009E+02    0.10450138E+03
O     0.96130738E+02    0.99945785E+02    0.10445096E+03
H     0.96903217E+02    0.10049491E+03    0.10418671E+03
H     0.95648324E+02    0.10046423E+03    0.10512639E+03
O     0.99916988E+02    0.91165595E+02    0.10203241E+03
H     0.10021219E+03    0.91357731E+02    0.10296407E+03
H     0.99481239E+02    0.90259834E+02    0.10198549E+03
O     0.97432272E+02    0.10359050E+03    0.10494036E+03
H     0.98225650E+02    0.10421279E+03    0.10499425E+03
H     0.97638004E+02    0.10272751E+03    0.10436875E+03
O     0.10032428E+03    0.91537395E+02    0.10483267E+03
H     0.10012829E+03    0.92493591E+02    0.10500181E+03
H     0.10038116E+03    0.91079010E+02    0.10572355E+03
O     0.98967973E+02    0.97384509E+02    0.10350463E+03
H     0.99204047E+02    0.97968661E+02    0.10275390E+03
H     0.98842604E+02    0.96428255E+02    0.10315318E+03
O     0.99708146E+02    0.97620585E+02    0.99089844E+02
H     0.10040367E+03    0.96866649E+02    0.99132004E+02
H     0.98784912E+02    0.97240032E+02    0.99367218E+02
O     0.10131005E+03    0.95362460E+02    0.99480808E+02
H     0.10222843E+03    0.95322362E+02    0.99951514E+02
H     0.10070842E+03    0.94626446E+02    0.99821872E+02
O     0.97583363E+02    0.10188607E+03    0.98228204E+02
H     0.96933844E+02    0.10135750E+03    0.97688239E+02
H     0.98370371E+02    0.10130638E+03    0.98512327E+02
O     0.96104391E+02    0.90528199E+02    0.98973406E+02
H     0.95562494E+02    0.89761381E+02    0.98561473E+02
H     0.95612299E+02    0.91419636E+02    0.98914923E+02
O     0.98250364E+02    0.96554261E+02    0.10598551E+03
H     0.98673897E+02    0.96935441E+02    0.10517696E+03
H     0.97995114E+02    0.97305426E+02    0.10665351E+03
