          97
Time step:               18000 Sim. Time [au]      180000.00
C     0.92579422E+02    0.95688549E+02    0.10933378E+03
H     0.92170302E+02    0.94802260E+02    0.10883865E+03
H     0.92793954E+02    0.96452148E+02    0.10860936E+03
H     0.93462971E+02    0.95593846E+02    0.10997934E+03
H     0.91676970E+02    0.96002274E+02    0.11007727E+03
C     0.94028278E+02    0.94330144E+02    0.10378863E+03
O     0.94875854E+02    0.95099013E+02    0.10353799E+03
O     0.98350608E+02    0.95048666E+02    0.10629735E+03
H     0.98282278E+02    0.94480477E+02    0.10711788E+03
H     0.99163049E+02    0.94938460E+02    0.10570878E+03
O     0.99237707E+02    0.99557418E+02    0.10315957E+03
H     0.98517817E+02    0.10024197E+03    0.10339179E+03
H     0.99680756E+02    0.99657790E+02    0.10226398E+03
O     0.10109845E+03    0.96817899E+02    0.10265711E+03
H     0.10181613E+03    0.96830439E+02    0.10337464E+03
H     0.10081142E+03    0.97763764E+02    0.10248558E+03
O     0.95533222E+02    0.94817371E+02    0.98531173E+02
H     0.96248616E+02    0.94178006E+02    0.98806564E+02
H     0.95905664E+02    0.95770017E+02    0.98347530E+02
O     0.95782950E+02    0.97704926E+02    0.10148033E+03
H     0.94804749E+02    0.97403937E+02    0.10156140E+03
H     0.96415016E+02    0.97541742E+02    0.10230598E+03
O     0.98311776E+02    0.90670753E+02    0.10230222E+03
H     0.97450527E+02    0.91117127E+02    0.10194756E+03
H     0.98698101E+02    0.89941162E+02    0.10170685E+03
O     0.98096417E+02    0.94516737E+02    0.10235750E+03
H     0.98160768E+02    0.93828958E+02    0.10309278E+03
H     0.97901517E+02    0.95424166E+02    0.10276782E+03
O     0.10063407E+03    0.94159902E+02    0.10451052E+03
H     0.10001830E+03    0.93378220E+02    0.10437641E+03
H     0.10073751E+03    0.94740914E+02    0.10364521E+03
O     0.95357216E+02    0.91903696E+02    0.96785188E+02
H     0.95695832E+02    0.92513237E+02    0.96073289E+02
H     0.95969162E+02    0.91983430E+02    0.97573898E+02
O     0.10244904E+03    0.96706516E+02    0.10512831E+03
H     0.10318487E+03    0.97290986E+02    0.10554817E+03
H     0.10241080E+03    0.95731844E+02    0.10547346E+03
O     0.99265613E+02    0.97378786E+02    0.99155737E+02
H     0.99620166E+02    0.96538251E+02    0.99643474E+02
H     0.98341038E+02    0.97227963E+02    0.98845655E+02
O     0.93101496E+02    0.94365373E+02    0.97479791E+02
H     0.94093460E+02    0.94605498E+02    0.97742493E+02
H     0.92707407E+02    0.93647363E+02    0.98030934E+02
O     0.89711410E+02    0.93566787E+02    0.10025103E+03
H     0.89847330E+02    0.94527699E+02    0.10048891E+03
H     0.89016402E+02    0.93094434E+02    0.10086112E+03
O     0.91979195E+02    0.92354079E+02    0.99114154E+02
H     0.91064674E+02    0.92729747E+02    0.99397426E+02
H     0.91936135E+02    0.91575013E+02    0.98464966E+02
O     0.96556395E+02    0.92471632E+02    0.10135003E+03
H     0.95593113E+02    0.92729841E+02    0.10104855E+03
H     0.97121713E+02    0.93319498E+02    0.10136209E+03
O     0.97568389E+02    0.97593398E+02    0.10629497E+03
H     0.97855502E+02    0.96640783E+02    0.10642771E+03
H     0.98350401E+02    0.98257180E+02    0.10636023E+03
O     0.94277307E+02    0.93255640E+02    0.10041004E+03
H     0.94410117E+02    0.94004517E+02    0.99746307E+02
H     0.93525496E+02    0.92725470E+02    0.10001610E+03
O     0.98606637E+02    0.92395297E+02    0.10428802E+03
H     0.97902145E+02    0.92240896E+02    0.10493716E+03
H     0.98614320E+02    0.91545790E+02    0.10369311E+03
O     0.10002607E+03    0.95106389E+02    0.10057982E+03
H     0.99246008E+02    0.94728891E+02    0.10113739E+03
H     0.10056420E+03    0.95744592E+02    0.10116711E+03
O     0.97711618E+02    0.97209928E+02    0.10348015E+03
H     0.97384762E+02    0.97217785E+02    0.10445927E+03
H     0.98379310E+02    0.97934348E+02    0.10330489E+03
O     0.93175702E+02    0.96227524E+02    0.10062992E+03
H     0.94004081E+02    0.95683988E+02    0.10064709E+03
H     0.93016409E+02    0.96691659E+02    0.99736480E+02
O     0.10004111E+03    0.98720239E+02    0.10552647E+03
H     0.10065248E+03    0.97918642E+02    0.10538637E+03
H     0.99863395E+02    0.99268448E+02    0.10467294E+03
O     0.90305823E+02    0.96303251E+02    0.10038822E+03
H     0.91251916E+02    0.96399255E+02    0.10085447E+03
H     0.90380199E+02    0.96576005E+02    0.99400345E+02
O     0.10056600E+03    0.99130152E+02    0.10083573E+03
H     0.10013718E+03    0.98512625E+02    0.10016040E+03
H     0.10159510E+03    0.99200071E+02    0.10067904E+03
O     0.91180953E+02    0.96288751E+02    0.97375477E+02
H     0.91963653E+02    0.95612460E+02    0.97486748E+02
H     0.91179653E+02    0.96630885E+02    0.96424393E+02
O     0.97196412E+02    0.92480365E+02    0.98823180E+02
H     0.98193502E+02    0.92705867E+02    0.98627667E+02
H     0.97012088E+02    0.92263259E+02    0.99816085E+02
O     0.99735272E+02    0.93958183E+02    0.98317562E+02
H     0.99929419E+02    0.94242519E+02    0.99267920E+02
H     0.10001161E+03    0.94724409E+02    0.97647981E+02
O     0.92825862E+02    0.90315199E+02    0.97263746E+02
H     0.92937948E+02    0.89479507E+02    0.96727345E+02
H     0.93654751E+02    0.90917425E+02    0.97209725E+02
O     0.10275121E+03    0.94538401E+02    0.10641836E+03
H     0.10355123E+03    0.93904164E+02    0.10666476E+03
H     0.10194978E+03    0.94027603E+02    0.10612406E+03
O     0.96447467E+02    0.97340113E+02    0.98820221E+02
H     0.96344305E+02    0.98137902E+02    0.98242829E+02
H     0.96104553E+02    0.97575604E+02    0.99750358E+02
