          97
Time step:               19000 Sim. Time [au]      190000.00
C     0.90568911E+02    0.95709315E+02    0.10784560E+03
H     0.90165204E+02    0.96686584E+02    0.10821014E+03
H     0.90811932E+02    0.95024305E+02    0.10861390E+03
H     0.91465833E+02    0.95928110E+02    0.10719302E+03
H     0.89899382E+02    0.95064547E+02    0.10721834E+03
C     0.94475477E+02    0.95436864E+02    0.10368691E+03
O     0.95108034E+02    0.94633021E+02    0.10313647E+03
O     0.99389335E+02    0.94090914E+02    0.10655220E+03
H     0.10016902E+03    0.94428795E+02    0.10710378E+03
H     0.99492677E+02    0.93912020E+02    0.10556775E+03
O     0.99050243E+02    0.99271144E+02    0.10343470E+03
H     0.98312453E+02    0.99929844E+02    0.10312860E+03
H     0.99737780E+02    0.99186888E+02    0.10269320E+03
O     0.10175679E+03    0.96299963E+02    0.10241175E+03
H     0.10230249E+03    0.96366449E+02    0.10329248E+03
H     0.10153983E+03    0.97202990E+02    0.10204283E+03
O     0.95516543E+02    0.94807123E+02    0.98768891E+02
H     0.95946280E+02    0.94100606E+02    0.98111825E+02
H     0.96063285E+02    0.95630045E+02    0.98824663E+02
O     0.95462482E+02    0.98513231E+02    0.10142968E+03
H     0.94517331E+02    0.98065766E+02    0.10151599E+03
H     0.96085260E+02    0.97989277E+02    0.10200713E+03
O     0.98094116E+02    0.90192130E+02    0.10195171E+03
H     0.97556771E+02    0.90886062E+02    0.10141521E+03
H     0.98334618E+02    0.89461110E+02    0.10132686E+03
O     0.98256062E+02    0.94563965E+02    0.10204987E+03
H     0.98431784E+02    0.93770026E+02    0.10272916E+03
H     0.97864183E+02    0.95414254E+02    0.10241285E+03
O     0.10083831E+03    0.94181757E+02    0.10389581E+03
H     0.10055291E+03    0.93242855E+02    0.10348010E+03
H     0.10098904E+03    0.94980050E+02    0.10329955E+03
O     0.94827693E+02    0.91577463E+02    0.96797414E+02
H     0.95436157E+02    0.91890037E+02    0.96047121E+02
H     0.95199392E+02    0.91825235E+02    0.97718228E+02
O     0.10289777E+03    0.96716749E+02    0.10564892E+03
H     0.10359352E+03    0.97084527E+02    0.10634251E+03
H     0.10268418E+03    0.95792252E+02    0.10599043E+03
O     0.98876872E+02    0.97483444E+02    0.10004851E+03
H     0.99203491E+02    0.96556776E+02    0.99836689E+02
H     0.98126989E+02    0.97845292E+02    0.99402137E+02
O     0.92883628E+02    0.95383009E+02    0.98435783E+02
H     0.93818912E+02    0.95089637E+02    0.98307732E+02
H     0.92359991E+02    0.94546146E+02    0.98776753E+02
O     0.89195340E+02    0.93310633E+02    0.99628749E+02
H     0.89244860E+02    0.94134632E+02    0.10027068E+03
H     0.88353559E+02    0.92837616E+02    0.99717891E+02
O     0.91812670E+02    0.92896914E+02    0.99318585E+02
H     0.90800406E+02    0.92969282E+02    0.99430321E+02
H     0.92052424E+02    0.92020103E+02    0.98831178E+02
O     0.96896711E+02    0.92474653E+02    0.10068437E+03
H     0.95877893E+02    0.92464310E+02    0.10072570E+03
H     0.97347037E+02    0.93307860E+02    0.10109130E+03
O     0.97699809E+02    0.96373132E+02    0.10646506E+03
H     0.98123742E+02    0.95468382E+02    0.10673130E+03
H     0.98376187E+02    0.97097691E+02    0.10658978E+03
O     0.94347738E+02    0.92914573E+02    0.10046370E+03
H     0.94717085E+02    0.93675078E+02    0.99918716E+02
H     0.93360903E+02    0.92752990E+02    0.10031830E+03
O     0.98878150E+02    0.92316027E+02    0.10351841E+03
H     0.98345491E+02    0.92416725E+02    0.10435127E+03
H     0.98674739E+02    0.91529106E+02    0.10291527E+03
O     0.10030320E+03    0.94935370E+02    0.10036985E+03
H     0.99417204E+02    0.94843278E+02    0.10085740E+03
H     0.10097690E+03    0.95346490E+02    0.10103219E+03
O     0.97438745E+02    0.96941287E+02    0.10384096E+03
H     0.97246819E+02    0.96730520E+02    0.10482086E+03
H     0.98062441E+02    0.97755389E+02    0.10379380E+03
O     0.93302560E+02    0.97096203E+02    0.10128621E+03
H     0.93137046E+02    0.96103696E+02    0.10125336E+03
H     0.93225893E+02    0.97465985E+02    0.10035548E+03
O     0.99885189E+02    0.97869452E+02    0.10588958E+03
H     0.10085719E+03    0.97539409E+02    0.10598430E+03
H     0.99733346E+02    0.98607907E+02    0.10522705E+03
O     0.89742386E+02    0.96350389E+02    0.99985202E+02
H     0.90487459E+02    0.96809499E+02    0.10052290E+03
H     0.90083514E+02    0.96220274E+02    0.99035547E+02
O     0.10074162E+03    0.98710486E+02    0.10148997E+03
H     0.10002570E+03    0.98095270E+02    0.10102252E+03
H     0.10137559E+03    0.99148746E+02    0.10080879E+03
O     0.92735972E+02    0.98093546E+02    0.98539202E+02
H     0.92661902E+02    0.97063458E+02    0.98543807E+02
H     0.91990566E+02    0.98549472E+02    0.98049028E+02
O     0.97406455E+02    0.93004011E+02    0.98007807E+02
H     0.98385405E+02    0.93253347E+02    0.97801952E+02
H     0.97267286E+02    0.92602982E+02    0.98965633E+02
O     0.10015970E+03    0.93677974E+02    0.97961407E+02
H     0.10020200E+03    0.94205336E+02    0.98831178E+02
H     0.10082054E+03    0.94053674E+02    0.97352637E+02
O     0.92342753E+02    0.90832642E+02    0.97733511E+02
H     0.91953656E+02    0.90013958E+02    0.97242591E+02
H     0.93316741E+02    0.91000811E+02    0.97454210E+02
O     0.10209367E+03    0.94203520E+02    0.10632701E+03
H     0.10218861E+03    0.93292635E+02    0.10662672E+03
H     0.10157166E+03    0.94252864E+02    0.10538689E+03
O     0.96415270E+02    0.97843802E+02    0.98817956E+02
H     0.95827568E+02    0.98164174E+02    0.98059215E+02
H     0.96123235E+02    0.98162412E+02    0.99691291E+02
