          97
Time step:                4500 Sim. Time [au]       45000.00
C     0.10136484E+03    0.92760302E+02    0.10417190E+03
H     0.10078986E+03    0.91870102E+02    0.10415105E+03
H     0.10065923E+03    0.93623592E+02    0.10402660E+03
H     0.10220173E+03    0.92858663E+02    0.10346898E+03
H     0.10177845E+03    0.92912992E+02    0.10515654E+03
C     0.94767575E+02    0.97430043E+02    0.10416324E+03
O     0.93807072E+02    0.98113755E+02    0.10399265E+03
O     0.91295284E+02    0.99662137E+02    0.10224452E+03
H     0.90959278E+02    0.98857618E+02    0.10173834E+03
H     0.90808498E+02    0.99736418E+02    0.10314556E+03
O     0.97450429E+02    0.97740143E+02    0.98142362E+02
H     0.97515007E+02    0.96726782E+02    0.98012158E+02
H     0.97976241E+02    0.98219439E+02    0.97441151E+02
O     0.99408972E+02    0.98313447E+02    0.10074239E+03
H     0.98840268E+02    0.98907516E+02    0.10134043E+03
H     0.98862801E+02    0.98054453E+02    0.99934631E+02
O     0.97439044E+02    0.91341019E+02    0.99722105E+02
H     0.98128767E+02    0.91886735E+02    0.10030691E+03
H     0.97202397E+02    0.91879554E+02    0.98899207E+02
O     0.95117188E+02    0.94577052E+02    0.99673013E+02
H     0.94269913E+02    0.94173875E+02    0.10001958E+03
H     0.95032482E+02    0.95576506E+02    0.99742818E+02
O     0.98989466E+02    0.94337208E+02    0.10596447E+03
H     0.98748310E+02    0.93884760E+02    0.10508005E+03
H     0.98591357E+02    0.93852609E+02    0.10676379E+03
O     0.97161414E+02    0.95558426E+02    0.10239013E+03
H     0.96853252E+02    0.96059805E+02    0.10317524E+03
H     0.96609839E+02    0.95902745E+02    0.10161138E+03
O     0.98249228E+02    0.99390077E+02    0.10447125E+03
H     0.98472467E+02    0.98459665E+02    0.10484619E+03
H     0.99096332E+02    0.99962290E+02    0.10444234E+03
O     0.99519234E+02    0.89737731E+02    0.10234210E+03
H     0.10046339E+03    0.89605799E+02    0.10266613E+03
H     0.99525746E+02    0.90598169E+02    0.10180708E+03
O     0.97213555E+02    0.10204365E+03    0.10038997E+03
H     0.97913362E+02    0.10219393E+03    0.99743236E+02
H     0.97480294E+02    0.10122074E+03    0.10096440E+03
O     0.98781761E+02    0.94800898E+02    0.97577969E+02
H     0.99389085E+02    0.94576372E+02    0.98410159E+02
H     0.97909964E+02    0.94323883E+02    0.97564679E+02
O     0.95474792E+02    0.90142811E+02    0.10122206E+03
H     0.96058126E+02    0.90622897E+02    0.10052020E+03
H     0.95896565E+02    0.89261763E+02    0.10146859E+03
O     0.93551874E+02    0.93580119E+02    0.10406825E+03
H     0.94368683E+02    0.93573275E+02    0.10461683E+03
H     0.93071626E+02    0.92696344E+02    0.10416584E+03
O     0.96952680E+02    0.87950232E+02    0.10209037E+03
H     0.97801975E+02    0.88408849E+02    0.10241156E+03
H     0.96767251E+02    0.87128398E+02    0.10264215E+03
O     0.97584256E+02    0.93239822E+02    0.10369242E+03
H     0.96892703E+02    0.92494236E+02    0.10363048E+03
H     0.97319591E+02    0.94048158E+02    0.10310189E+03
O     0.93820064E+02    0.99404820E+02    0.10065223E+03
H     0.92999125E+02    0.99464009E+02    0.10130008E+03
H     0.94155728E+02    0.10034818E+03    0.10053295E+03
O     0.95711963E+02    0.90913552E+02    0.10376080E+03
H     0.95617494E+02    0.90507999E+02    0.10281618E+03
H     0.94782080E+02    0.90958477E+02    0.10422622E+03
O     0.99003767E+02    0.96801866E+02    0.10499986E+03
H     0.99406178E+02    0.96530135E+02    0.10405694E+03
H     0.99019937E+02    0.95998600E+02    0.10557756E+03
O     0.99756291E+02    0.96137676E+02    0.10251260E+03
H     0.98748011E+02    0.95863681E+02    0.10241990E+03
H     0.99946419E+02    0.97003974E+02    0.10204074E+03
O     0.95679068E+02    0.97278157E+02    0.10011787E+03
H     0.94883817E+02    0.97943382E+02    0.10013841E+03
H     0.96243241E+02    0.97449468E+02    0.99318776E+02
O     0.93055473E+02    0.93309003E+02    0.10107011E+03
H     0.93291070E+02    0.93589699E+02    0.10203400E+03
H     0.92761826E+02    0.92307630E+02    0.10101524E+03
O     0.94660554E+02    0.10208768E+03    0.10045810E+03
H     0.95682611E+02    0.10210171E+03    0.10060625E+03
H     0.94239573E+02    0.10295167E+03    0.10062901E+03
O     0.92810129E+02    0.90940410E+02    0.10445712E+03
H     0.92057326E+02    0.90585534E+02    0.10502907E+03
H     0.92822582E+02    0.90584011E+02    0.10349883E+03
O     0.99845860E+02    0.97078296E+02    0.96490857E+02
H     0.99426533E+02    0.96190482E+02    0.96846532E+02
H     0.99946337E+02    0.96976007E+02    0.95497998E+02
O     0.92738217E+02    0.90472487E+02    0.10171517E+03
H     0.92122731E+02    0.89741882E+02    0.10136406E+03
H     0.93710319E+02    0.90317394E+02    0.10140427E+03
O     0.99295469E+02    0.92494281E+02    0.10119238E+03
H     0.99797099E+02    0.93286362E+02    0.10078710E+03
H     0.98930584E+02    0.92746715E+02    0.10213096E+03
O     0.10012424E+03    0.94935324E+02    0.10008733E+03
H     0.10009476E+03    0.95373906E+02    0.10103254E+03
H     0.10071875E+03    0.95578764E+02    0.99576502E+02
O     0.97757500E+02    0.89317181E+02    0.10458373E+03
H     0.96965452E+02    0.89956372E+02    0.10447343E+03
H     0.98436206E+02    0.89523935E+02    0.10384905E+03
O     0.97286292E+02    0.99854396E+02    0.10183233E+03
H     0.96282167E+02    0.99674612E+02    0.10177412E+03
H     0.97610189E+02    0.99763045E+02    0.10278110E+03
O     0.96506069E+02    0.93482007E+02    0.97753792E+02
H     0.95918433E+02    0.93184104E+02    0.97006048E+02
H     0.96019537E+02    0.93909997E+02    0.98548190E+02
